@<TRIPOS>MOLECULE
3F2T
31 33 0 0 0
SMALL
GASTEIGER
 
@<TRIPOS>ATOM
      1  N1        28.4270   34.8300   18.7100 N.am   1   FMN       -0.0958
      2  C2        28.3290   33.4990   18.3670 C.2    1   FMN        0.3101
      3  O2        28.6290   33.1310   17.2350 O.2    1   FMN       -0.2534
      4  N3        27.8930   32.5720   19.2860 N.am   1   FMN       -0.0727
      5  C4        27.5600   32.9670   20.5670 C.2    1   FMN        0.2726
      6  O4        27.1880   32.1300   21.3920 O.2    1   FMN       -0.2695
      7  C4A       27.6550   34.3080   20.9220 C.ar   1   FMN        0.1631
      8  N5        27.3220   34.7100   22.2000 N.ar   1   FMN       -0.2381
      9  C5A       27.4190   36.0430   22.5510 C.ar   1   FMN        0.0859
     10  C6        27.0820   36.4480   23.8430 C.ar   1   FMN        0.0336
     11  C7        27.1710   37.7870   24.2050 C.ar   1   FMN       -0.0459
     12  C7M       26.7980   38.1850   25.5980 C.3    1   FMN        0.0446
     13  C8        27.6070   38.7350   23.2670 C.ar   1   FMN       -0.0462
     14  C8M       27.7260   40.1920   23.6210 C.3    1   FMN        0.0446
     15  C9        27.9410   38.3280   21.9780 C.ar   1   FMN        0.0295
     16  C9A       27.8480   36.9840   21.6120 C.ar   1   FMN        0.0604
     17  N10       28.1780   36.5770   20.3280 N.ar   1   FMN       -0.2823
     18  C10       28.0880   35.2420   19.9830 C.ar   1   FMN        0.1289
     19  C1'       28.5400   37.5840   19.2780 C.3    1   FMN        0.1471
     20  C2'       27.2830   38.1430   18.6330 C.3    1   FMN        0.1631
     21  O2'       26.7760   37.2070   17.7210 O.3    1   FMN       -0.1780
     22  C3'       27.5840   39.4280   17.8800 C.3    1   FMN        0.1752
     23  O3'       28.6200   39.1850   16.9660 O.3    1   FMN       -0.1769
     24  C4'       28.0110   40.5590   18.8010 C.3    1   FMN        0.1715
     25  O4'       27.1330   40.6070   19.9080 O.3    1   FMN       -0.1772
     26  C5'       27.9670   41.8880   18.0500 C.3    1   FMN        0.2000
     27  O5'       26.6220   42.2280   17.7860 O.3    1   FMN       -0.3518
     28  P         26.2660   43.3510   16.6950 P.3    1   FMN        0.0600
     29  O1P       25.6880   44.6030   17.3050 O.co2  1   FMN       -0.6341
     30  O2P       25.2560   42.7680   15.7420 O.co2  1   FMN       -0.6341
     31  O3P       27.5350   43.7600   15.9990 O.co2  1   FMN       -0.6341
@<TRIPOS>BOND
     1    1    2 am
     2    1   18 1
     3    2    3 2
     4    2    4 am
     5    4    5 am
     6    5    6 2
     7    5    7 1
     8    7    8 ar
     9    7   18 ar
    10    8    9 ar
    11    9   10 ar
    12    9   16 ar
    13   10   11 ar
    14   11   12 1
    15   11   13 ar
    16   13   14 1
    17   13   15 ar
    18   15   16 ar
    19   16   17 ar
    20   17   18 ar
    21   17   19 1
    22   19   20 1
    23   20   21 1
    24   20   22 1
    25   22   23 1
    26   22   24 1
    27   24   25 1
    28   24   26 1
    29   26   27 1
    30   27   28 1
    31   28   29 1
    32   28   30 1
    33   28   31 1
@<TRIPOS>MOLECULE
3F2T
31 33 0 0 0
SMALL
GASTEIGER
 
@<TRIPOS>ATOM
      1  N1        28.4270   34.8300   18.7100 N.am   1   FMN       -0.0958
      2  C2        28.3290   33.4990   18.3670 C.2    1   FMN        0.3101
      3  O2        28.6290   33.1310   17.2350 O.2    1   FMN       -0.2534
      4  N3        27.8930   32.5720   19.2860 N.am   1   FMN       -0.0727
      5  C4        27.5600   32.9670   20.5670 C.2    1   FMN        0.2726
      6  O4        27.1880   32.1300   21.3920 O.2    1   FMN       -0.2695
      7  C4A       27.6550   34.3080   20.9220 C.ar   1   FMN        0.1631
      8  N5        27.3220   34.7100   22.2000 N.ar   1   FMN       -0.2381
      9  C5A       27.4190   36.0430   22.5510 C.ar   1   FMN        0.0859
     10  C6        27.0820   36.4480   23.8430 C.ar   1   FMN        0.0336
     11  C7        27.1710   37.7870   24.2050 C.ar   1   FMN       -0.0459
     12  C7M       26.7980   38.1850   25.5980 C.3    1   FMN        0.0446
     13  C8        27.6070   38.7350   23.2670 C.ar   1   FMN       -0.0462
     14  C8M       27.7260   40.1920   23.6210 C.3    1   FMN        0.0446
     15  C9        27.9410   38.3280   21.9780 C.ar   1   FMN        0.0295
     16  C9A       27.8480   36.9840   21.6120 C.ar   1   FMN        0.0604
     17  N10       28.1780   36.5770   20.3280 N.ar   1   FMN       -0.2823
     18  C10       28.0880   35.2420   19.9830 C.ar   1   FMN        0.1289
     19  C1'       28.5400   37.5840   19.2780 C.3    1   FMN        0.1471
     20  C2'       27.2840   38.2260   18.7140 C.3    1   FMN        0.1631
     21  O2'       26.7470   37.3950   17.7200 O.3    1   FMN       -0.1780
     22  C3'       27.5980   39.5750   18.0880 C.3    1   FMN        0.1752
     23  O3'       28.6830   39.4270   17.2120 O.3    1   FMN       -0.1769
     24  C4'       27.9550   40.6300   19.1220 C.3    1   FMN        0.1715
     25  O4'       26.7800   41.0270   19.8000 O.3    1   FMN       -0.1772
     26  C5'       28.5890   41.8380   18.4370 C.3    1   FMN        0.2000
     27  O5'       27.6670   42.3880   17.5180 O.3    1   FMN       -0.3518
     28  P         28.1580   43.4310   16.4000 P.3    1   FMN        0.0600
     29  O1P       28.5100   44.7810   16.9700 O.co2  1   FMN       -0.6341
     30  O2P       27.0410   43.6030   15.4050 O.co2  1   FMN       -0.6341
     31  O3P       29.4090   42.8950   15.7620 O.co2  1   FMN       -0.6341
@<TRIPOS>BOND
     1    1    2 am
     2    1   18 1
     3    2    3 2
     4    2    4 am
     5    4    5 am
     6    5    6 2
     7    5    7 1
     8    7    8 ar
     9    7   18 ar
    10    8    9 ar
    11    9   10 ar
    12    9   16 ar
    13   10   11 ar
    14   11   12 1
    15   11   13 ar
    16   13   14 1
    17   13   15 ar
    18   15   16 ar
    19   16   17 ar
    20   17   18 ar
    21   17   19 1
    22   19   20 1
    23   20   21 1
    24   20   22 1
    25   22   23 1
    26   22   24 1
    27   24   25 1
    28   24   26 1
    29   26   27 1
    30   27   28 1
    31   28   29 1
    32   28   30 1
    33   28   31 1
@<TRIPOS>MOLECULE
3F2T
31 33 0 0 0
SMALL
GASTEIGER
 
@<TRIPOS>ATOM
      1  N1        28.4270   34.8300   18.7100 N.am   1   FMN       -0.0958
      2  C2        28.3290   33.4990   18.3670 C.2    1   FMN        0.3101
      3  O2        28.6290   33.1310   17.2350 O.2    1   FMN       -0.2534
      4  N3        27.8930   32.5720   19.2860 N.am   1   FMN       -0.0727
      5  C4        27.5600   32.9670   20.5670 C.2    1   FMN        0.2726
      6  O4        27.1880   32.1300   21.3920 O.2    1   FMN       -0.2695
      7  C4A       27.6550   34.3080   20.9220 C.ar   1   FMN        0.1631
      8  N5        27.3220   34.7100   22.2000 N.ar   1   FMN       -0.2381
      9  C5A       27.4190   36.0430   22.5510 C.ar   1   FMN        0.0859
     10  C6        27.0820   36.4480   23.8430 C.ar   1   FMN        0.0336
     11  C7        27.1710   37.7870   24.2050 C.ar   1   FMN       -0.0459
     12  C7M       26.7980   38.1850   25.5980 C.3    1   FMN        0.0446
     13  C8        27.6070   38.7350   23.2670 C.ar   1   FMN       -0.0462
     14  C8M       27.7260   40.1920   23.6210 C.3    1   FMN        0.0446
     15  C9        27.9410   38.3280   21.9780 C.ar   1   FMN        0.0295
     16  C9A       27.8480   36.9840   21.6120 C.ar   1   FMN        0.0604
     17  N10       28.1780   36.5770   20.3280 N.ar   1   FMN       -0.2823
     18  C10       28.0880   35.2420   19.9830 C.ar   1   FMN        0.1289
     19  C1'       28.5400   37.5840   19.2780 C.3    1   FMN        0.1471
     20  C2'       27.5080   38.6990   19.2440 C.3    1   FMN        0.1631
     21  O2'       26.2230   38.1410   19.3180 O.3    1   FMN       -0.1780
     22  C3'       27.6090   39.4920   17.9520 C.3    1   FMN        0.1752
     23  O3'       27.7310   38.5980   16.8780 O.3    1   FMN       -0.1769
     24  C4'       28.8030   40.4310   17.9340 C.3    1   FMN        0.1715
     25  O4'       28.9860   40.9670   19.2300 O.3    1   FMN       -0.1772
     26  C5'       28.5640   41.5620   16.9370 C.3    1   FMN        0.2000
     27  O5'       28.0610   42.6890   17.6250 O.3    1   FMN       -0.3518
     28  P         27.0700   43.7160   16.8890 P.3    1   FMN        0.0600
     29  O1P       27.6540   45.0980   16.7470 O.co2  1   FMN       -0.6341
     30  O2P       25.8070   43.8060   17.7040 O.co2  1   FMN       -0.6341
     31  O3P       26.8110   43.2140   15.4950 O.co2  1   FMN       -0.6341
@<TRIPOS>BOND
     1    1    2 am
     2    1   18 1
     3    2    3 2
     4    2    4 am
     5    4    5 am
     6    5    6 2
     7    5    7 1
     8    7    8 ar
     9    7   18 ar
    10    8    9 ar
    11    9   10 ar
    12    9   16 ar
    13   10   11 ar
    14   11   12 1
    15   11   13 ar
    16   13   14 1
    17   13   15 ar
    18   15   16 ar
    19   16   17 ar
    20   17   18 ar
    21   17   19 1
    22   19   20 1
    23   20   21 1
    24   20   22 1
    25   22   23 1
    26   22   24 1
    27   24   25 1
    28   24   26 1
    29   26   27 1
    30   27   28 1
    31   28   29 1
    32   28   30 1
    33   28   31 1
@<TRIPOS>MOLECULE
3F2T
31 33 0 0 0
SMALL
GASTEIGER
 
@<TRIPOS>ATOM
      1  N1        28.4270   34.8300   18.7100 N.am   1   FMN       -0.0958
      2  C2        28.3290   33.4990   18.3670 C.2    1   FMN        0.3101
      3  O2        28.6290   33.1310   17.2350 O.2    1   FMN       -0.2534
      4  N3        27.8930   32.5720   19.2860 N.am   1   FMN       -0.0727
      5  C4        27.5600   32.9670   20.5670 C.2    1   FMN        0.2726
      6  O4        27.1880   32.1300   21.3920 O.2    1   FMN       -0.2695
      7  C4A       27.6550   34.3080   20.9220 C.ar   1   FMN        0.1631
      8  N5        27.3220   34.7100   22.2000 N.ar   1   FMN       -0.2381
      9  C5A       27.4190   36.0430   22.5510 C.ar   1   FMN        0.0859
     10  C6        27.0820   36.4480   23.8430 C.ar   1   FMN        0.0336
     11  C7        27.1710   37.7870   24.2050 C.ar   1   FMN       -0.0459
     12  C7M       26.7980   38.1850   25.5980 C.3    1   FMN        0.0446
     13  C8        27.6070   38.7350   23.2670 C.ar   1   FMN       -0.0462
     14  C8M       27.7260   40.1920   23.6210 C.3    1   FMN        0.0446
     15  C9        27.9410   38.3280   21.9780 C.ar   1   FMN        0.0295
     16  C9A       27.8480   36.9840   21.6120 C.ar   1   FMN        0.0604
     17  N10       28.1780   36.5770   20.3280 N.ar   1   FMN       -0.2823
     18  C10       28.0880   35.2420   19.9830 C.ar   1   FMN        0.1289
     19  C1'       28.5400   37.5840   19.2780 C.3    1   FMN        0.1471
     20  C2'       27.3380   37.8740   18.3940 C.3    1   FMN        0.1631
     21  O2'       26.7980   36.6630   17.9380 O.3    1   FMN       -0.1780
     22  C3'       27.7410   38.7020   17.1850 C.3    1   FMN        0.1752
     23  O3'       29.0850   38.4390   16.8830 O.3    1   FMN       -0.1769
     24  C4'       27.5840   40.1950   17.4200 C.3    1   FMN        0.1715
     25  O4'       26.4780   40.4130   18.2740 O.3    1   FMN       -0.1772
     26  C5'       27.3590   40.9120   16.0920 C.3    1   FMN        0.2000
     27  O5'       26.1450   40.4680   15.5230 O.3    1   FMN       -0.3518
     28  P         25.7300   40.9160   14.0380 P.3    1   FMN        0.0600
     29  O1P       25.2600   42.3470   13.9650 O.co2  1   FMN       -0.6341
     30  O2P       24.6120   40.0180   13.5780 O.co2  1   FMN       -0.6341
     31  O3P       26.9410   40.8160   13.1530 O.co2  1   FMN       -0.6341
@<TRIPOS>BOND
     1    1    2 am
     2    1   18 1
     3    2    3 2
     4    2    4 am
     5    4    5 am
     6    5    6 2
     7    5    7 1
     8    7    8 ar
     9    7   18 ar
    10    8    9 ar
    11    9   10 ar
    12    9   16 ar
    13   10   11 ar
    14   11   12 1
    15   11   13 ar
    16   13   14 1
    17   13   15 ar
    18   15   16 ar
    19   16   17 ar
    20   17   18 ar
    21   17   19 1
    22   19   20 1
    23   20   21 1
    24   20   22 1
    25   22   23 1
    26   22   24 1
    27   24   25 1
    28   24   26 1
    29   26   27 1
    30   27   28 1
    31   28   29 1
    32   28   30 1
    33   28   31 1
@<TRIPOS>MOLECULE
3F2T
31 33 0 0 0
SMALL
GASTEIGER
 
@<TRIPOS>ATOM
      1  N1        28.4270   34.8300   18.7100 N.am   1  FMN1       -0.0958
      2  C2        28.3290   33.4990   18.3670 C.2    1  FMN1        0.3101
      3  O2        28.6290   33.1310   17.2350 O.2    1  FMN1       -0.2534
      4  N3        27.8930   32.5720   19.2860 N.am   1  FMN1       -0.0727
      5  C4        27.5600   32.9670   20.5670 C.2    1  FMN1        0.2726
      6  O4        27.1880   32.1300   21.3920 O.2    1  FMN1       -0.2695
      7  C4A       27.6550   34.3080   20.9220 C.3    1  FMN1        0.1631
      8  N5        27.3220   34.7100   22.2000 N.pl3  1  FMN1       -0.2381
      9  C5A       27.4190   36.0430   22.5510 C.3    1  FMN1        0.0859
     10  C6        27.0820   36.4480   23.8430 C.3    1  FMN1        0.0336
     11  C7        27.1710   37.7870   24.2050 C.3    1  FMN1       -0.0459
     12  C7M       26.7980   38.1850   25.5980 C.3    1  FMN1        0.0446
     13  C8        27.6070   38.7350   23.2670 C.3    1  FMN1       -0.0462
     14  C8M       27.7260   40.1920   23.6210 C.3    1  FMN1        0.0446
     15  C9        27.9410   38.3280   21.9780 C.3    1  FMN1        0.0295
     16  C9A       27.8480   36.9840   21.6120 C.3    1  FMN1        0.0604
     17  N10       28.1780   36.5770   20.3280 N.pl3  1  FMN1       -0.2823
     18  C10       28.0880   35.2420   19.9830 C.3    1  FMN1        0.1289
     19  C1'       28.5400   37.5840   19.2780 C.3    1  FMN1        0.1471
     20  C2'       27.2964   38.0235   18.5232 C.3    1  FMN1        0.1631
     21  O2'       26.7006   36.9046   17.9239 O.3    1  FMN1       -0.1780
     22  C3'       27.6482   39.0187   17.4303 C.3    1  FMN1        0.1752
     23  O3'       28.2637   40.1354   18.0146 O.3    1  FMN1       -0.1769
     24  C4'       26.4296   39.4918   16.6558 C.3    1  FMN1        0.1715
     25  O4'       25.7979   38.3740   16.0640 O.3    1  FMN1       -0.1772
     26  C5'       26.8514   40.4795   15.5711 C.3    1  FMN1        0.2000
     27  O5'       27.4971   41.5825   16.1723 O.3    1  FMN1       -0.3518
     28  P         26.7279   42.4833   17.2563 P.3    1  FMN1        0.0600
     29  O1P       26.2996   41.7026   18.4730 O.3    1  FMN1       -0.6341
     30  O2P       25.5029   43.0586   16.5965 O.3    1  FMN1       -0.6341
     31  O3P       27.6669   43.5531   17.7420 O.3    1  FMN1       -0.6341
@<TRIPOS>BOND
     1    1    2 am
     2    1   18 1
     3    2    3 2
     4    2    4 am
     5    4    5 am
     6    5    6 2
     7    5    7 1
     8    7    8 ar
     9    7   18 ar
    10    8    9 ar
    11    9   10 ar
    12    9   16 ar
    13   10   11 ar
    14   11   12 1
    15   11   13 ar
    16   13   14 1
    17   13   15 ar
    18   15   16 ar
    19   16   17 ar
    20   17   18 ar
    21   17   19 1
    22   19   20 1
    23   20   21 1
    24   20   22 1
    25   22   23 1
    26   22   24 1
    27   24   25 1
    28   24   26 1
    29   26   27 1
    30   27   28 1
    31   28   29 1
    32   28   30 1
    33   28   31 1
@<TRIPOS>MOLECULE
3F2T
31 33 0 0 0
SMALL
GASTEIGER
 
@<TRIPOS>ATOM
      1  N1        28.4270   34.8300   18.7100 N.am   1   FMN       -0.0958
      2  C2        28.3290   33.4990   18.3670 C.2    1   FMN        0.3101
      3  O2        28.6290   33.1310   17.2350 O.2    1   FMN       -0.2534
      4  N3        27.8930   32.5720   19.2860 N.am   1   FMN       -0.0727
      5  C4        27.5600   32.9670   20.5670 C.2    1   FMN        0.2726
      6  O4        27.1880   32.1300   21.3920 O.2    1   FMN       -0.2695
      7  C4A       27.6550   34.3080   20.9220 C.ar   1   FMN        0.1631
      8  N5        27.3220   34.7100   22.2000 N.ar   1   FMN       -0.2381
      9  C5A       27.4190   36.0430   22.5510 C.ar   1   FMN        0.0859
     10  C6        27.0820   36.4480   23.8430 C.ar   1   FMN        0.0336
     11  C7        27.1710   37.7870   24.2050 C.ar   1   FMN       -0.0459
     12  C7M       26.7980   38.1850   25.5980 C.3    1   FMN        0.0446
     13  C8        27.6070   38.7350   23.2670 C.ar   1   FMN       -0.0462
     14  C8M       27.7260   40.1920   23.6210 C.3    1   FMN        0.0446
     15  C9        27.9410   38.3280   21.9780 C.ar   1   FMN        0.0295
     16  C9A       27.8480   36.9840   21.6120 C.ar   1   FMN        0.0604
     17  N10       28.1780   36.5770   20.3280 N.ar   1   FMN       -0.2823
     18  C10       28.0880   35.2420   19.9830 C.ar   1   FMN        0.1289
     19  C1'       28.5400   37.5840   19.2780 C.3    1   FMN        0.1471
     20  C2'       27.5150   38.7060   19.2530 C.3    1   FMN        0.1631
     21  O2'       26.4430   38.3340   18.4300 O.3    1   FMN       -0.1780
     22  C3'       28.1220   39.9830   18.6970 C.3    1   FMN        0.1752
     23  O3'       28.8360   39.6750   17.5290 O.3    1   FMN       -0.1769
     24  C4'       29.0700   40.6550   19.6760 C.3    1   FMN        0.1715
     25  O4'       28.7000   40.2990   20.9930 O.3    1   FMN       -0.1772
     26  C5'       29.0000   42.1710   19.5130 C.3    1   FMN        0.2000
     27  O5'       27.6470   42.5770   19.5090 O.3    1   FMN       -0.3518
     28  P         27.2480   44.0830   19.8960 P.3    1   FMN        0.0600
     29  O1P       27.0120   44.2680   21.3730 O.co2  1   FMN       -0.6341
     30  O2P       25.9840   44.4320   19.1580 O.co2  1   FMN       -0.6341
     31  O3P       28.3900   44.9900   19.5270 O.co2  1   FMN       -0.6341
@<TRIPOS>BOND
     1    1    2 am
     2    1   18 1
     3    2    3 2
     4    2    4 am
     5    4    5 am
     6    5    6 2
     7    5    7 1
     8    7    8 ar
     9    7   18 ar
    10    8    9 ar
    11    9   10 ar
    12    9   16 ar
    13   10   11 ar
    14   11   12 1
    15   11   13 ar
    16   13   14 1
    17   13   15 ar
    18   15   16 ar
    19   16   17 ar
    20   17   18 ar
    21   17   19 1
    22   19   20 1
    23   20   21 1
    24   20   22 1
    25   22   23 1
    26   22   24 1
    27   24   25 1
    28   24   26 1
    29   26   27 1
    30   27   28 1
    31   28   29 1
    32   28   30 1
    33   28   31 1
@<TRIPOS>MOLECULE
3F2T
31 33 0 0 0
SMALL
GASTEIGER
 
@<TRIPOS>ATOM
      1  N1        28.4270   34.8300   18.7100 N.am   1  FMN1       -0.0958
      2  C2        28.3290   33.4990   18.3670 C.2    1  FMN1        0.3101
      3  O2        28.6290   33.1310   17.2350 O.2    1  FMN1       -0.2534
      4  N3        27.8930   32.5720   19.2860 N.am   1  FMN1       -0.0727
      5  C4        27.5600   32.9670   20.5670 C.2    1  FMN1        0.2726
      6  O4        27.1880   32.1300   21.3920 O.2    1  FMN1       -0.2695
      7  C4A       27.6550   34.3080   20.9220 C.3    1  FMN1        0.1631
      8  N5        27.3220   34.7100   22.2000 N.pl3  1  FMN1       -0.2381
      9  C5A       27.4190   36.0430   22.5510 C.3    1  FMN1        0.0859
     10  C6        27.0820   36.4480   23.8430 C.3    1  FMN1        0.0336
     11  C7        27.1710   37.7870   24.2050 C.3    1  FMN1       -0.0459
     12  C7M       26.7980   38.1850   25.5980 C.3    1  FMN1        0.0446
     13  C8        27.6070   38.7350   23.2670 C.3    1  FMN1       -0.0462
     14  C8M       27.7260   40.1920   23.6210 C.3    1  FMN1        0.0446
     15  C9        27.9410   38.3280   21.9780 C.3    1  FMN1        0.0295
     16  C9A       27.8480   36.9840   21.6120 C.3    1  FMN1        0.0604
     17  N10       28.1780   36.5770   20.3280 N.pl3  1  FMN1       -0.2823
     18  C10       28.0880   35.2420   19.9830 C.3    1  FMN1        0.1289
     19  C1'       28.5400   37.5840   19.2780 C.3    1  FMN1        0.1471
     20  C2'       27.5742   37.4910   18.1083 C.3    1  FMN1        0.1631
     21  O2'       27.9398   38.4287   17.1321 O.3    1  FMN1       -0.1780
     22  C3'       26.1532   37.7947   18.5524 C.3    1  FMN1        0.1752
     23  O3'       25.2981   37.6811   17.4464 O.3    1  FMN1       -0.1769
     24  C4'       26.0075   39.1920   19.1313 C.3    1  FMN1        0.1715
     25  O4'       24.6659   39.3864   19.5326 O.3    1  FMN1       -0.1772
     26  C5'       26.3880   40.2339   18.0826 C.3    1  FMN1        0.2000
     27  O5'       26.2623   41.5245   18.6427 O.3    1  FMN1       -0.3518
     28  P         26.5821   42.8281   17.7615 P.3    1  FMN1        0.0600
     29  O1P       25.6928   42.9525   16.5503 O.3    1  FMN1       -0.6341
     30  O2P       28.0130   42.7382   17.3019 O.3    1  FMN1       -0.6341
     31  O3P       26.3317   44.0483   18.6043 O.3    1  FMN1       -0.6341
@<TRIPOS>BOND
     1    1    2 am
     2    1   18 1
     3    2    3 2
     4    2    4 am
     5    4    5 am
     6    5    6 2
     7    5    7 1
     8    7    8 ar
     9    7   18 ar
    10    8    9 ar
    11    9   10 ar
    12    9   16 ar
    13   10   11 ar
    14   11   12 1
    15   11   13 ar
    16   13   14 1
    17   13   15 ar
    18   15   16 ar
    19   16   17 ar
    20   17   18 ar
    21   17   19 1
    22   19   20 1
    23   20   21 1
    24   20   22 1
    25   22   23 1
    26   22   24 1
    27   24   25 1
    28   24   26 1
    29   26   27 1
    30   27   28 1
    31   28   29 1
    32   28   30 1
    33   28   31 1
@<TRIPOS>MOLECULE
3F2T
31 33 0 0 0
SMALL
GASTEIGER
 
@<TRIPOS>ATOM
      1  N1        28.4270   34.8300   18.7100 N.am   1  FMN1       -0.0958
      2  C2        28.3290   33.4990   18.3670 C.2    1  FMN1        0.3101
      3  O2        28.6290   33.1310   17.2350 O.2    1  FMN1       -0.2534
      4  N3        27.8930   32.5720   19.2860 N.am   1  FMN1       -0.0727
      5  C4        27.5600   32.9670   20.5670 C.2    1  FMN1        0.2726
      6  O4        27.1880   32.1300   21.3920 O.2    1  FMN1       -0.2695
      7  C4A       27.6550   34.3080   20.9220 C.3    1  FMN1        0.1631
      8  N5        27.3220   34.7100   22.2000 N.pl3  1  FMN1       -0.2381
      9  C5A       27.4190   36.0430   22.5510 C.3    1  FMN1        0.0859
     10  C6        27.0820   36.4480   23.8430 C.3    1  FMN1        0.0336
     11  C7        27.1710   37.7870   24.2050 C.3    1  FMN1       -0.0459
     12  C7M       26.7980   38.1850   25.5980 C.3    1  FMN1        0.0446
     13  C8        27.6070   38.7350   23.2670 C.3    1  FMN1       -0.0462
     14  C8M       27.7260   40.1920   23.6210 C.3    1  FMN1        0.0446
     15  C9        27.9410   38.3280   21.9780 C.3    1  FMN1        0.0295
     16  C9A       27.8480   36.9840   21.6120 C.3    1  FMN1        0.0604
     17  N10       28.1780   36.5770   20.3280 N.pl3  1  FMN1       -0.2823
     18  C10       28.0880   35.2420   19.9830 C.3    1  FMN1        0.1289
     19  C1'       28.5400   37.5840   19.2780 C.3    1  FMN1        0.1471
     20  C2'       27.5742   37.4910   18.1083 C.3    1  FMN1        0.1631
     21  O2'       27.6282   36.1988   17.5668 O.3    1  FMN1       -0.1780
     22  C3'       27.9464   38.4809   17.0173 C.3    1  FMN1        0.1752
     23  O3'       29.2360   38.1818   16.5538 O.3    1  FMN1       -0.1769
     24  C4'       27.9323   39.9202   17.5040 C.3    1  FMN1        0.1715
     25  O4'       28.8746   40.0622   18.5483 O.3    1  FMN1       -0.1772
     26  C5'       26.5402   40.2858   18.0126 C.3    1  FMN1        0.2000
     27  O5'       26.5417   41.6303   18.4452 O.3    1  FMN1       -0.3518
     28  P         25.2095   42.2913   19.0507 P.3    1  FMN1        0.0600
     29  O1P       24.7163   41.5906   20.2913 O.3    1  FMN1       -0.6341
     30  O2P       24.1359   42.2199   17.9974 O.3    1  FMN1       -0.6341
     31  O3P       25.5182   43.7075   19.4522 O.3    1  FMN1       -0.6341
@<TRIPOS>BOND
     1    1    2 am
     2    1   18 1
     3    2    3 2
     4    2    4 am
     5    4    5 am
     6    5    6 2
     7    5    7 1
     8    7    8 ar
     9    7   18 ar
    10    8    9 ar
    11    9   10 ar
    12    9   16 ar
    13   10   11 ar
    14   11   12 1
    15   11   13 ar
    16   13   14 1
    17   13   15 ar
    18   15   16 ar
    19   16   17 ar
    20   17   18 ar
    21   17   19 1
    22   19   20 1
    23   20   21 1
    24   20   22 1
    25   22   23 1
    26   22   24 1
    27   24   25 1
    28   24   26 1
    29   26   27 1
    30   27   28 1
    31   28   29 1
    32   28   30 1
    33   28   31 1
@<TRIPOS>MOLECULE
3F2T
31 33 0 0 0
SMALL
GASTEIGER
 
@<TRIPOS>ATOM
      1  N1        28.4270   34.8300   18.7100 N.am   1   FMN       -0.0958
      2  C2        28.3290   33.4990   18.3670 C.2    1   FMN        0.3101
      3  O2        28.6290   33.1310   17.2350 O.2    1   FMN       -0.2534
      4  N3        27.8930   32.5720   19.2860 N.am   1   FMN       -0.0727
      5  C4        27.5600   32.9670   20.5670 C.2    1   FMN        0.2726
      6  O4        27.1880   32.1300   21.3920 O.2    1   FMN       -0.2695
      7  C4A       27.6550   34.3080   20.9220 C.ar   1   FMN        0.1631
      8  N5        27.3220   34.7100   22.2000 N.ar   1   FMN       -0.2381
      9  C5A       27.4190   36.0430   22.5510 C.ar   1   FMN        0.0859
     10  C6        27.0820   36.4480   23.8430 C.ar   1   FMN        0.0336
     11  C7        27.1710   37.7870   24.2050 C.ar   1   FMN       -0.0459
     12  C7M       26.7980   38.1850   25.5980 C.3    1   FMN        0.0446
     13  C8        27.6070   38.7350   23.2670 C.ar   1   FMN       -0.0462
     14  C8M       27.7260   40.1920   23.6210 C.3    1   FMN        0.0446
     15  C9        27.9410   38.3280   21.9780 C.ar   1   FMN        0.0295
     16  C9A       27.8480   36.9840   21.6120 C.ar   1   FMN        0.0604
     17  N10       28.1780   36.5770   20.3280 N.ar   1   FMN       -0.2823
     18  C10       28.0880   35.2420   19.9830 C.ar   1   FMN        0.1289
     19  C1'       28.5400   37.5840   19.2780 C.3    1   FMN        0.1471
     20  C2'       27.2880   38.2680   18.7550 C.3    1   FMN        0.1631
     21  O2'       27.0530   37.8540   17.4360 O.3    1   FMN       -0.1780
     22  C3'       27.4530   39.7780   18.7580 C.3    1   FMN        0.1752
     23  O3'       28.8160   40.0860   18.8790 O.3    1   FMN       -0.1769
     24  C4'       26.7060   40.4460   19.9010 C.3    1   FMN        0.1715
     25  O4'       25.9310   39.4740   20.5740 O.3    1   FMN       -0.1772
     26  C5'       25.7970   41.5450   19.3580 C.3    1   FMN        0.2000
     27  O5'       24.5600   40.9800   18.9760 O.3    1   FMN       -0.3518
     28  P         23.5780   41.7680   17.9800 P.3    1   FMN        0.0600
     29  O1P       22.2400   42.0830   18.6000 O.co2  1   FMN       -0.6341
     30  O2P       23.3560   40.9040   16.7670 O.co2  1   FMN       -0.6341
     31  O3P       24.2100   43.0870   17.6310 O.co2  1   FMN       -0.6341
@<TRIPOS>BOND
     1    1    2 am
     2    1   18 1
     3    2    3 2
     4    2    4 am
     5    4    5 am
     6    5    6 2
     7    5    7 1
     8    7    8 ar
     9    7   18 ar
    10    8    9 ar
    11    9   10 ar
    12    9   16 ar
    13   10   11 ar
    14   11   12 1
    15   11   13 ar
    16   13   14 1
    17   13   15 ar
    18   15   16 ar
    19   16   17 ar
    20   17   18 ar
    21   17   19 1
    22   19   20 1
    23   20   21 1
    24   20   22 1
    25   22   23 1
    26   22   24 1
    27   24   25 1
    28   24   26 1
    29   26   27 1
    30   27   28 1
    31   28   29 1
    32   28   30 1
    33   28   31 1
@<TRIPOS>MOLECULE
3F2T
31 33 0 0 0
SMALL
GASTEIGER
 
@<TRIPOS>ATOM
      1  N1        28.4270   34.8300   18.7100 N.am   1  FMN1       -0.0958
      2  C2        28.3290   33.4990   18.3670 C.2    1  FMN1        0.3101
      3  O2        28.6290   33.1310   17.2350 O.2    1  FMN1       -0.2534
      4  N3        27.8930   32.5720   19.2860 N.am   1  FMN1       -0.0727
      5  C4        27.5600   32.9670   20.5670 C.2    1  FMN1        0.2726
      6  O4        27.1880   32.1300   21.3920 O.2    1  FMN1       -0.2695
      7  C4A       27.6550   34.3080   20.9220 C.3    1  FMN1        0.1631
      8  N5        27.3220   34.7100   22.2000 N.pl3  1  FMN1       -0.2381
      9  C5A       27.4190   36.0430   22.5510 C.3    1  FMN1        0.0859
     10  C6        27.0820   36.4480   23.8430 C.3    1  FMN1        0.0336
     11  C7        27.1710   37.7870   24.2050 C.3    1  FMN1       -0.0459
     12  C7M       26.7980   38.1850   25.5980 C.3    1  FMN1        0.0446
     13  C8        27.6070   38.7350   23.2670 C.3    1  FMN1       -0.0462
     14  C8M       27.7260   40.1920   23.6210 C.3    1  FMN1        0.0446
     15  C9        27.9410   38.3280   21.9780 C.3    1  FMN1        0.0295
     16  C9A       27.8480   36.9840   21.6120 C.3    1  FMN1        0.0604
     17  N10       28.1780   36.5770   20.3280 N.pl3  1  FMN1       -0.2823
     18  C10       28.0880   35.2420   19.9830 C.3    1  FMN1        0.1289
     19  C1'       28.5400   37.5840   19.2780 C.3    1  FMN1        0.1471
     20  C2'       30.0388   37.8349   19.2878 C.3    1  FMN1        0.1631
     21  O2'       30.4194   38.3078   20.5517 O.3    1  FMN1       -0.1780
     22  C3'       30.4209   38.8799   18.2531 C.3    1  FMN1        0.1752
     23  O3'       31.8107   39.0657   18.2876 O.3    1  FMN1       -0.1769
     24  C4'       29.7503   40.2206   18.5008 C.3    1  FMN1        0.1715
     25  O4'       28.3476   40.0460   18.4716 O.3    1  FMN1       -0.1772
     26  C5'       30.1678   41.2200   17.4251 C.3    1  FMN1        0.2000
     27  O5'       29.5485   42.4634   17.6803 O.3    1  FMN1       -0.3518
     28  P         29.7911   43.7098   16.6975 P.3    1  FMN1        0.0600
     29  O1P       29.0644   44.9558   17.1366 O.3    1  FMN1       -0.6341
     30  O2P       29.3006   43.3230   15.3276 O.3    1  FMN1       -0.6341
     31  O3P       31.2574   44.0444   16.7024 O.3    1  FMN1       -0.6341
@<TRIPOS>BOND
     1    1    2 am
     2    1   18 1
     3    2    3 2
     4    2    4 am
     5    4    5 am
     6    5    6 2
     7    5    7 1
     8    7    8 ar
     9    7   18 ar
    10    8    9 ar
    11    9   10 ar
    12    9   16 ar
    13   10   11 ar
    14   11   12 1
    15   11   13 ar
    16   13   14 1
    17   13   15 ar
    18   15   16 ar
    19   16   17 ar
    20   17   18 ar
    21   17   19 1
    22   19   20 1
    23   20   21 1
    24   20   22 1
    25   22   23 1
    26   22   24 1
    27   24   25 1
    28   24   26 1
    29   26   27 1
    30   27   28 1
    31   28   29 1
    32   28   30 1
    33   28   31 1
@<TRIPOS>MOLECULE
3F2T
31 33 0 0 0
SMALL
GASTEIGER
 
@<TRIPOS>ATOM
      1  N1        28.4270   34.8300   18.7100 N.am   1  FMN1       -0.0958
      2  C2        28.3290   33.4990   18.3670 C.2    1  FMN1        0.3101
      3  O2        28.6290   33.1310   17.2350 O.2    1  FMN1       -0.2534
      4  N3        27.8930   32.5720   19.2860 N.am   1  FMN1       -0.0727
      5  C4        27.5600   32.9670   20.5670 C.2    1  FMN1        0.2726
      6  O4        27.1880   32.1300   21.3920 O.2    1  FMN1       -0.2695
      7  C4A       27.6550   34.3080   20.9220 C.3    1  FMN1        0.1631
      8  N5        27.3220   34.7100   22.2000 N.pl3  1  FMN1       -0.2381
      9  C5A       27.4190   36.0430   22.5510 C.3    1  FMN1        0.0859
     10  C6        27.0820   36.4480   23.8430 C.3    1  FMN1        0.0336
     11  C7        27.1710   37.7870   24.2050 C.3    1  FMN1       -0.0459
     12  C7M       26.7980   38.1850   25.5980 C.3    1  FMN1        0.0446
     13  C8        27.6070   38.7350   23.2670 C.3    1  FMN1       -0.0462
     14  C8M       27.7260   40.1920   23.6210 C.3    1  FMN1        0.0446
     15  C9        27.9410   38.3280   21.9780 C.3    1  FMN1        0.0295
     16  C9A       27.8480   36.9840   21.6120 C.3    1  FMN1        0.0604
     17  N10       28.1780   36.5770   20.3280 N.pl3  1  FMN1       -0.2823
     18  C10       28.0880   35.2420   19.9830 C.3    1  FMN1        0.1289
     19  C1'       28.5400   37.5840   19.2780 C.3    1  FMN1        0.1471
     20  C2'       27.3900   38.5543   19.0646 C.3    1  FMN1        0.1631
     21  O2'       26.2512   37.8399   18.6660 O.3    1  FMN1       -0.1780
     22  C3'       27.7249   39.5621   17.9779 C.3    1  FMN1        0.1752
     23  O3'       27.9554   38.8749   16.7771 O.3    1  FMN1       -0.1769
     24  C4'       28.9590   40.3860   18.3048 C.3    1  FMN1        0.1715
     25  O4'       28.7405   41.0818   19.5159 O.3    1  FMN1       -0.1772
     26  C5'       29.2349   41.3816   17.1810 C.3    1  FMN1        0.2000
     27  O5'       29.4335   40.6763   15.9735 O.3    1  FMN1       -0.3518
     28  P         29.7617   41.4663   14.6147 P.3    1  FMN1        0.0600
     29  O1P       28.6843   42.4485   14.2300 O.3    1  FMN1       -0.6341
     30  O2P       29.9058   40.4520   13.5113 O.3    1  FMN1       -0.6341
     31  O3P       31.0186   42.2667   14.8184 O.3    1  FMN1       -0.6341
@<TRIPOS>BOND
     1    1    2 am
     2    1   18 1
     3    2    3 2
     4    2    4 am
     5    4    5 am
     6    5    6 2
     7    5    7 1
     8    7    8 ar
     9    7   18 ar
    10    8    9 ar
    11    9   10 ar
    12    9   16 ar
    13   10   11 ar
    14   11   12 1
    15   11   13 ar
    16   13   14 1
    17   13   15 ar
    18   15   16 ar
    19   16   17 ar
    20   17   18 ar
    21   17   19 1
    22   19   20 1
    23   20   21 1
    24   20   22 1
    25   22   23 1
    26   22   24 1
    27   24   25 1
    28   24   26 1
    29   26   27 1
    30   27   28 1
    31   28   29 1
    32   28   30 1
    33   28   31 1
@<TRIPOS>MOLECULE
3F2T
31 33 0 0 0
SMALL
GASTEIGER
 
@<TRIPOS>ATOM
      1  N1        28.4270   34.8300   18.7100 N.am   1   FMN       -0.0958
      2  C2        28.3290   33.4990   18.3670 C.2    1   FMN        0.3101
      3  O2        28.6290   33.1310   17.2350 O.2    1   FMN       -0.2534
      4  N3        27.8930   32.5720   19.2860 N.am   1   FMN       -0.0727
      5  C4        27.5600   32.9670   20.5670 C.2    1   FMN        0.2726
      6  O4        27.1880   32.1300   21.3920 O.2    1   FMN       -0.2695
      7  C4A       27.6550   34.3080   20.9220 C.ar   1   FMN        0.1631
      8  N5        27.3220   34.7100   22.2000 N.ar   1   FMN       -0.2381
      9  C5A       27.4190   36.0430   22.5510 C.ar   1   FMN        0.0859
     10  C6        27.0820   36.4480   23.8430 C.ar   1   FMN        0.0336
     11  C7        27.1710   37.7870   24.2050 C.ar   1   FMN       -0.0459
     12  C7M       26.7980   38.1850   25.5980 C.3    1   FMN        0.0446
     13  C8        27.6070   38.7350   23.2670 C.ar   1   FMN       -0.0462
     14  C8M       27.7260   40.1920   23.6210 C.3    1   FMN        0.0446
     15  C9        27.9410   38.3280   21.9780 C.ar   1   FMN        0.0295
     16  C9A       27.8480   36.9840   21.6120 C.ar   1   FMN        0.0604
     17  N10       28.1780   36.5770   20.3280 N.ar   1   FMN       -0.2823
     18  C10       28.0880   35.2420   19.9830 C.ar   1   FMN        0.1289
     19  C1'       28.5400   37.5840   19.2780 C.3    1   FMN        0.1471
     20  C2'       27.5030   38.6940   19.2380 C.3    1   FMN        0.1631
     21  O2'       26.2280   38.1300   19.0900 O.3    1   FMN       -0.1780
     22  C3'       27.7510   39.6260   18.0640 C.3    1   FMN        0.1752
     23  O3'       26.9530   39.2190   16.9850 O.3    1   FMN       -0.1769
     24  C4'       29.2030   39.6270   17.6140 C.3    1   FMN        0.1715
     25  O4'       30.0300   39.8900   18.7300 O.3    1   FMN       -0.1772
     26  C5'       29.4190   40.6980   16.5490 C.3    1   FMN        0.2000
     27  O5'       29.6460   41.9420   17.1790 O.3    1   FMN       -0.3518
     28  P         30.3700   43.1350   16.3860 P.3    1   FMN        0.0600
     29  O1P       31.8170   42.8430   16.0760 O.co2  1   FMN       -0.6341
     30  O2P       30.3000   44.3720   17.2420 O.co2  1   FMN       -0.6341
     31  O3P       29.6780   43.3210   15.0630 O.co2  1   FMN       -0.6341
@<TRIPOS>BOND
     1    1    2 am
     2    1   18 1
     3    2    3 2
     4    2    4 am
     5    4    5 am
     6    5    6 2
     7    5    7 1
     8    7    8 ar
     9    7   18 ar
    10    8    9 ar
    11    9   10 ar
    12    9   16 ar
    13   10   11 ar
    14   11   12 1
    15   11   13 ar
    16   13   14 1
    17   13   15 ar
    18   15   16 ar
    19   16   17 ar
    20   17   18 ar
    21   17   19 1
    22   19   20 1
    23   20   21 1
    24   20   22 1
    25   22   23 1
    26   22   24 1
    27   24   25 1
    28   24   26 1
    29   26   27 1
    30   27   28 1
    31   28   29 1
    32   28   30 1
    33   28   31 1
@<TRIPOS>MOLECULE
3F2T
31 33 0 0 0
SMALL
GASTEIGER
 
@<TRIPOS>ATOM
      1  N1        28.4270   34.8300   18.7100 N.am   1  FMN1       -0.0958
      2  C2        28.3290   33.4990   18.3670 C.2    1  FMN1        0.3101
      3  O2        28.6290   33.1310   17.2350 O.2    1  FMN1       -0.2534
      4  N3        27.8930   32.5720   19.2860 N.am   1  FMN1       -0.0727
      5  C4        27.5600   32.9670   20.5670 C.2    1  FMN1        0.2726
      6  O4        27.1880   32.1300   21.3920 O.2    1  FMN1       -0.2695
      7  C4A       27.6550   34.3080   20.9220 C.3    1  FMN1        0.1631
      8  N5        27.3220   34.7100   22.2000 N.pl3  1  FMN1       -0.2381
      9  C5A       27.4190   36.0430   22.5510 C.3    1  FMN1        0.0859
     10  C6        27.0820   36.4480   23.8430 C.3    1  FMN1        0.0336
     11  C7        27.1710   37.7870   24.2050 C.3    1  FMN1       -0.0459
     12  C7M       26.7980   38.1850   25.5980 C.3    1  FMN1        0.0446
     13  C8        27.6070   38.7350   23.2670 C.3    1  FMN1       -0.0462
     14  C8M       27.7260   40.1920   23.6210 C.3    1  FMN1        0.0446
     15  C9        27.9410   38.3280   21.9780 C.3    1  FMN1        0.0295
     16  C9A       27.8480   36.9840   21.6120 C.3    1  FMN1        0.0604
     17  N10       28.1780   36.5770   20.3280 N.pl3  1  FMN1       -0.2823
     18  C10       28.0880   35.2420   19.9830 C.3    1  FMN1        0.1289
     19  C1'       28.5400   37.5840   19.2780 C.3    1  FMN1        0.1471
     20  C2'       27.3900   38.5543   19.0646 C.3    1  FMN1        0.1631
     21  O2'       26.2512   37.8399   18.6660 O.3    1  FMN1       -0.1780
     22  C3'       27.7249   39.5621   17.9779 C.3    1  FMN1        0.1752
     23  O3'       26.6443   40.4437   17.8280 O.3    1  FMN1       -0.1769
     24  C4'       27.9993   38.9052   16.6355 C.3    1  FMN1        0.1715
     25  O4'       29.0854   38.0109   16.7741 O.3    1  FMN1       -0.1772
     26  C5'       28.3365   39.9682   15.5932 C.3    1  FMN1        0.2000
     27  O5'       27.2522   40.8656   15.4768 O.3    1  FMN1       -0.3518
     28  P         25.7985   40.3337   15.0497 P.3    1  FMN1        0.0600
     29  O1P       25.2337   39.3242   16.0166 O.3    1  FMN1       -0.6341
     30  O2P       25.9201   39.6883   13.6948 O.3    1  FMN1       -0.6341
     31  O3P       24.8467   41.4982   15.0410 O.3    1  FMN1       -0.6341
@<TRIPOS>BOND
     1    1    2 am
     2    1   18 1
     3    2    3 2
     4    2    4 am
     5    4    5 am
     6    5    6 2
     7    5    7 1
     8    7    8 ar
     9    7   18 ar
    10    8    9 ar
    11    9   10 ar
    12    9   16 ar
    13   10   11 ar
    14   11   12 1
    15   11   13 ar
    16   13   14 1
    17   13   15 ar
    18   15   16 ar
    19   16   17 ar
    20   17   18 ar
    21   17   19 1
    22   19   20 1
    23   20   21 1
    24   20   22 1
    25   22   23 1
    26   22   24 1
    27   24   25 1
    28   24   26 1
    29   26   27 1
    30   27   28 1
    31   28   29 1
    32   28   30 1
    33   28   31 1
@<TRIPOS>MOLECULE
3F2T
31 33 0 0 0
SMALL
GASTEIGER
 
@<TRIPOS>ATOM
      1  N1        28.4270   34.8300   18.7100 N.am   1  FMN1       -0.0958
      2  C2        28.3290   33.4990   18.3670 C.2    1  FMN1        0.3101
      3  O2        28.6290   33.1310   17.2350 O.2    1  FMN1       -0.2534
      4  N3        27.8930   32.5720   19.2860 N.am   1  FMN1       -0.0727
      5  C4        27.5600   32.9670   20.5670 C.2    1  FMN1        0.2726
      6  O4        27.1880   32.1300   21.3920 O.2    1  FMN1       -0.2695
      7  C4A       27.6550   34.3080   20.9220 C.3    1  FMN1        0.1631
      8  N5        27.3220   34.7100   22.2000 N.pl3  1  FMN1       -0.2381
      9  C5A       27.4190   36.0430   22.5510 C.3    1  FMN1        0.0859
     10  C6        27.0820   36.4480   23.8430 C.3    1  FMN1        0.0336
     11  C7        27.1710   37.7870   24.2050 C.3    1  FMN1       -0.0459
     12  C7M       26.7980   38.1850   25.5980 C.3    1  FMN1        0.0446
     13  C8        27.6070   38.7350   23.2670 C.3    1  FMN1       -0.0462
     14  C8M       27.7260   40.1920   23.6210 C.3    1  FMN1        0.0446
     15  C9        27.9410   38.3280   21.9780 C.3    1  FMN1        0.0295
     16  C9A       27.8480   36.9840   21.6120 C.3    1  FMN1        0.0604
     17  N10       28.1780   36.5770   20.3280 N.pl3  1  FMN1       -0.2823
     18  C10       28.0880   35.2420   19.9830 C.3    1  FMN1        0.1289
     19  C1'       28.5400   37.5840   19.2780 C.3    1  FMN1        0.1471
     20  C2'       27.5742   37.4910   18.1083 C.3    1  FMN1        0.1631
     21  O2'       27.9398   38.4287   17.1321 O.3    1  FMN1       -0.1780
     22  C3'       26.1532   37.7947   18.5524 C.3    1  FMN1        0.1752
     23  O3'       25.2981   37.6811   17.4464 O.3    1  FMN1       -0.1769
     24  C4'       26.0075   39.1920   19.1313 C.3    1  FMN1        0.1715
     25  O4'       24.6659   39.3864   19.5326 O.3    1  FMN1       -0.1772
     26  C5'       26.3880   40.2339   18.0826 C.3    1  FMN1        0.2000
     27  O5'       25.5257   40.1108   16.9708 O.3    1  FMN1       -0.3518
     28  P         23.9426   40.3167   17.1426 P.3    1  FMN1        0.0600
     29  O1P       23.1816   40.1305   15.8543 O.3    1  FMN1       -0.6341
     30  O2P       23.7083   41.7173   17.6429 O.3    1  FMN1       -0.6341
     31  O3P       23.4262   39.2777   18.0995 O.3    1  FMN1       -0.6341
@<TRIPOS>BOND
     1    1    2 am
     2    1   18 1
     3    2    3 2
     4    2    4 am
     5    4    5 am
     6    5    6 2
     7    5    7 1
     8    7    8 ar
     9    7   18 ar
    10    8    9 ar
    11    9   10 ar
    12    9   16 ar
    13   10   11 ar
    14   11   12 1
    15   11   13 ar
    16   13   14 1
    17   13   15 ar
    18   15   16 ar
    19   16   17 ar
    20   17   18 ar
    21   17   19 1
    22   19   20 1
    23   20   21 1
    24   20   22 1
    25   22   23 1
    26   22   24 1
    27   24   25 1
    28   24   26 1
    29   26   27 1
    30   27   28 1
    31   28   29 1
    32   28   30 1
    33   28   31 1
@<TRIPOS>MOLECULE
3F2T
31 33 0 0 0
SMALL
GASTEIGER
 
@<TRIPOS>ATOM
      1  N1        28.4270   34.8300   18.7100 N.am   1  FMN1       -0.0958
      2  C2        28.3290   33.4990   18.3670 C.2    1  FMN1        0.3101
      3  O2        28.6290   33.1310   17.2350 O.2    1  FMN1       -0.2534
      4  N3        27.8930   32.5720   19.2860 N.am   1  FMN1       -0.0727
      5  C4        27.5600   32.9670   20.5670 C.2    1  FMN1        0.2726
      6  O4        27.1880   32.1300   21.3920 O.2    1  FMN1       -0.2695
      7  C4A       27.6550   34.3080   20.9220 C.3    1  FMN1        0.1631
      8  N5        27.3220   34.7100   22.2000 N.pl3  1  FMN1       -0.2381
      9  C5A       27.4190   36.0430   22.5510 C.3    1  FMN1        0.0859
     10  C6        27.0820   36.4480   23.8430 C.3    1  FMN1        0.0336
     11  C7        27.1710   37.7870   24.2050 C.3    1  FMN1       -0.0459
     12  C7M       26.7980   38.1850   25.5980 C.3    1  FMN1        0.0446
     13  C8        27.6070   38.7350   23.2670 C.3    1  FMN1       -0.0462
     14  C8M       27.7260   40.1920   23.6210 C.3    1  FMN1        0.0446
     15  C9        27.9410   38.3280   21.9780 C.3    1  FMN1        0.0295
     16  C9A       27.8480   36.9840   21.6120 C.3    1  FMN1        0.0604
     17  N10       28.1780   36.5770   20.3280 N.pl3  1  FMN1       -0.2823
     18  C10       28.0880   35.2420   19.9830 C.3    1  FMN1        0.1289
     19  C1'       28.5400   37.5840   19.2780 C.3    1  FMN1        0.1471
     20  C2'       27.2964   38.0235   18.5232 C.3    1  FMN1        0.1631
     21  O2'       26.7006   36.9046   17.9239 O.3    1  FMN1       -0.1780
     22  C3'       27.6482   39.0187   17.4303 C.3    1  FMN1        0.1752
     23  O3'       28.2637   40.1354   18.0146 O.3    1  FMN1       -0.1769
     24  C4'       26.4296   39.4918   16.6558 C.3    1  FMN1        0.1715
     25  O4'       26.8448   40.3978   15.6530 O.3    1  FMN1       -0.1772
     26  C5'       25.4470   40.1814   17.5986 C.3    1  FMN1        0.2000
     27  O5'       24.3147   40.5996   16.8652 O.3    1  FMN1       -0.3518
     28  P         23.1132   41.3748   17.5959 P.3    1  FMN1        0.0600
     29  O1P       23.5470   42.6761   18.2218 O.3    1  FMN1       -0.6341
     30  O2P       22.5707   40.4772   18.6761 O.3    1  FMN1       -0.6341
     31  O3P       22.0714   41.7200   16.5676 O.3    1  FMN1       -0.6341
@<TRIPOS>BOND
     1    1    2 am
     2    1   18 1
     3    2    3 2
     4    2    4 am
     5    4    5 am
     6    5    6 2
     7    5    7 1
     8    7    8 ar
     9    7   18 ar
    10    8    9 ar
    11    9   10 ar
    12    9   16 ar
    13   10   11 ar
    14   11   12 1
    15   11   13 ar
    16   13   14 1
    17   13   15 ar
    18   15   16 ar
    19   16   17 ar
    20   17   18 ar
    21   17   19 1
    22   19   20 1
    23   20   21 1
    24   20   22 1
    25   22   23 1
    26   22   24 1
    27   24   25 1
    28   24   26 1
    29   26   27 1
    30   27   28 1
    31   28   29 1
    32   28   30 1
    33   28   31 1
@<TRIPOS>MOLECULE
3F2T
31 33 0 0 0
SMALL
GASTEIGER
 
@<TRIPOS>ATOM
      1  N1        28.4270   34.8300   18.7100 N.am   1   FMN       -0.0958
      2  C2        28.3290   33.4990   18.3670 C.2    1   FMN        0.3101
      3  O2        28.6290   33.1310   17.2350 O.2    1   FMN       -0.2534
      4  N3        27.8930   32.5720   19.2860 N.am   1   FMN       -0.0727
      5  C4        27.5600   32.9670   20.5670 C.2    1   FMN        0.2726
      6  O4        27.1880   32.1300   21.3920 O.2    1   FMN       -0.2695
      7  C4A       27.6550   34.3080   20.9220 C.ar   1   FMN        0.1631
      8  N5        27.3220   34.7100   22.2000 N.ar   1   FMN       -0.2381
      9  C5A       27.4190   36.0430   22.5510 C.ar   1   FMN        0.0859
     10  C6        27.0820   36.4480   23.8430 C.ar   1   FMN        0.0336
     11  C7        27.1710   37.7870   24.2050 C.ar   1   FMN       -0.0459
     12  C7M       26.7980   38.1850   25.5980 C.3    1   FMN        0.0446
     13  C8        27.6070   38.7350   23.2670 C.ar   1   FMN       -0.0462
     14  C8M       27.7260   40.1920   23.6210 C.3    1   FMN        0.0446
     15  C9        27.9410   38.3280   21.9780 C.ar   1   FMN        0.0295
     16  C9A       27.8480   36.9840   21.6120 C.ar   1   FMN        0.0604
     17  N10       28.1780   36.5770   20.3280 N.ar   1   FMN       -0.2823
     18  C10       28.0880   35.2420   19.9830 C.ar   1   FMN        0.1289
     19  C1'       28.5400   37.5840   19.2780 C.3    1   FMN        0.1471
     20  C2'       27.6600   38.8160   19.4090 C.3    1   FMN        0.1631
     21  O2'       26.5940   38.7200   18.5040 O.3    1   FMN       -0.1780
     22  C3'       28.4430   40.0790   19.0900 C.3    1   FMN        0.1752
     23  O3'       29.4630   39.7620   18.1800 O.3    1   FMN       -0.1769
     24  C4'       29.0760   40.7010   20.3230 C.3    1   FMN        0.1715
     25  O4'       28.1410   41.5700   20.9320 O.3    1   FMN       -0.1772
     26  C5'       30.3260   41.4840   19.9300 C.3    1   FMN        0.2000
     27  O5'       30.0430   42.2720   18.7930 O.3    1   FMN       -0.3518
     28  P         31.0520   42.2900   17.5440 P.3    1   FMN        0.0600
     29  O1P       31.9470   43.5030   17.5280 O.co2  1   FMN       -0.6341
     30  O2P       30.2290   42.2810   16.2820 O.co2  1   FMN       -0.6341
     31  O3P       31.9550   41.0910   17.6410 O.co2  1   FMN       -0.6341
@<TRIPOS>BOND
     1    1    2 am
     2    1   18 1
     3    2    3 2
     4    2    4 am
     5    4    5 am
     6    5    6 2
     7    5    7 1
     8    7    8 ar
     9    7   18 ar
    10    8    9 ar
    11    9   10 ar
    12    9   16 ar
    13   10   11 ar
    14   11   12 1
    15   11   13 ar
    16   13   14 1
    17   13   15 ar
    18   15   16 ar
    19   16   17 ar
    20   17   18 ar
    21   17   19 1
    22   19   20 1
    23   20   21 1
    24   20   22 1
    25   22   23 1
    26   22   24 1
    27   24   25 1
    28   24   26 1
    29   26   27 1
    30   27   28 1
    31   28   29 1
    32   28   30 1
    33   28   31 1
@<TRIPOS>MOLECULE
3F2T
31 33 0 0 0
SMALL
GASTEIGER
 
@<TRIPOS>ATOM
      1  N1        28.4270   34.8300   18.7100 N.am   1  FMN1       -0.0958
      2  C2        28.3290   33.4990   18.3670 C.2    1  FMN1        0.3101
      3  O2        28.6290   33.1310   17.2350 O.2    1  FMN1       -0.2534
      4  N3        27.8930   32.5720   19.2860 N.am   1  FMN1       -0.0727
      5  C4        27.5600   32.9670   20.5670 C.2    1  FMN1        0.2726
      6  O4        27.1880   32.1300   21.3920 O.2    1  FMN1       -0.2695
      7  C4A       27.6550   34.3080   20.9220 C.3    1  FMN1        0.1631
      8  N5        27.3220   34.7100   22.2000 N.pl3  1  FMN1       -0.2381
      9  C5A       27.4190   36.0430   22.5510 C.3    1  FMN1        0.0859
     10  C6        27.0820   36.4480   23.8430 C.3    1  FMN1        0.0336
     11  C7        27.1710   37.7870   24.2050 C.3    1  FMN1       -0.0459
     12  C7M       26.7980   38.1850   25.5980 C.3    1  FMN1        0.0446
     13  C8        27.6070   38.7350   23.2670 C.3    1  FMN1       -0.0462
     14  C8M       27.7260   40.1920   23.6210 C.3    1  FMN1        0.0446
     15  C9        27.9410   38.3280   21.9780 C.3    1  FMN1        0.0295
     16  C9A       27.8480   36.9840   21.6120 C.3    1  FMN1        0.0604
     17  N10       28.1780   36.5770   20.3280 N.pl3  1  FMN1       -0.2823
     18  C10       28.0880   35.2420   19.9830 C.3    1  FMN1        0.1289
     19  C1'       28.5400   37.5840   19.2780 C.3    1  FMN1        0.1471
     20  C2'       29.9493   37.3276   18.7705 C.3    1  FMN1        0.1631
     21  O2'       30.8489   37.4140   19.8426 O.3    1  FMN1       -0.1780
     22  C3'       30.3476   38.3606   17.7298 C.3    1  FMN1        0.1752
     23  O3'       30.3114   39.6338   18.3172 O.3    1  FMN1       -0.1769
     24  C4'       29.4240   38.3613   16.5233 C.3    1  FMN1        0.1715
     25  O4'       29.4492   37.0813   15.9236 O.3    1  FMN1       -0.1772
     26  C5'       29.8826   39.4119   15.5153 C.3    1  FMN1        0.2000
     27  O5'       29.8708   40.6831   16.1308 O.3    1  FMN1       -0.3518
     28  P         28.5097   41.2796   16.7389 P.3    1  FMN1        0.0600
     29  O1P       27.9304   40.4233   17.8363 O.3    1  FMN1       -0.6341
     30  O2P       27.5052   41.3761   15.6214 O.3    1  FMN1       -0.6341
     31  O3P       28.8071   42.6200   17.3527 O.3    1  FMN1       -0.6341
@<TRIPOS>BOND
     1    1    2 am
     2    1   18 1
     3    2    3 2
     4    2    4 am
     5    4    5 am
     6    5    6 2
     7    5    7 1
     8    7    8 ar
     9    7   18 ar
    10    8    9 ar
    11    9   10 ar
    12    9   16 ar
    13   10   11 ar
    14   11   12 1
    15   11   13 ar
    16   13   14 1
    17   13   15 ar
    18   15   16 ar
    19   16   17 ar
    20   17   18 ar
    21   17   19 1
    22   19   20 1
    23   20   21 1
    24   20   22 1
    25   22   23 1
    26   22   24 1
    27   24   25 1
    28   24   26 1
    29   26   27 1
    30   27   28 1
    31   28   29 1
    32   28   30 1
    33   28   31 1
@<TRIPOS>MOLECULE
3F2T
31 33 0 0 0
SMALL
GASTEIGER
 
@<TRIPOS>ATOM
      1  N1        28.4270   34.8300   18.7100 N.am   1  FMN1       -0.0958
      2  C2        28.3290   33.4990   18.3670 C.2    1  FMN1        0.3101
      3  O2        28.6290   33.1310   17.2350 O.2    1  FMN1       -0.2534
      4  N3        27.8930   32.5720   19.2860 N.am   1  FMN1       -0.0727
      5  C4        27.5600   32.9670   20.5670 C.2    1  FMN1        0.2726
      6  O4        27.1880   32.1300   21.3920 O.2    1  FMN1       -0.2695
      7  C4A       27.6550   34.3080   20.9220 C.3    1  FMN1        0.1631
      8  N5        27.3220   34.7100   22.2000 N.pl3  1  FMN1       -0.2381
      9  C5A       27.4190   36.0430   22.5510 C.3    1  FMN1        0.0859
     10  C6        27.0820   36.4480   23.8430 C.3    1  FMN1        0.0336
     11  C7        27.1710   37.7870   24.2050 C.3    1  FMN1       -0.0459
     12  C7M       26.7980   38.1850   25.5980 C.3    1  FMN1        0.0446
     13  C8        27.6070   38.7350   23.2670 C.3    1  FMN1       -0.0462
     14  C8M       27.7260   40.1920   23.6210 C.3    1  FMN1        0.0446
     15  C9        27.9410   38.3280   21.9780 C.3    1  FMN1        0.0295
     16  C9A       27.8480   36.9840   21.6120 C.3    1  FMN1        0.0604
     17  N10       28.1780   36.5770   20.3280 N.pl3  1  FMN1       -0.2823
     18  C10       28.0880   35.2420   19.9830 C.3    1  FMN1        0.1289
     19  C1'       28.5400   37.5840   19.2780 C.3    1  FMN1        0.1471
     20  C2'       29.9493   37.3276   18.7705 C.3    1  FMN1        0.1631
     21  O2'       30.8489   37.4140   19.8426 O.3    1  FMN1       -0.1780
     22  C3'       30.3476   38.3606   17.7298 C.3    1  FMN1        0.1752
     23  O3'       31.6452   38.0749   17.2803 O.3    1  FMN1       -0.1769
     24  C4'       30.3295   39.7783   18.2762 C.3    1  FMN1        0.1715
     25  O4'       29.0265   40.0777   18.7360 O.3    1  FMN1       -0.1772
     26  C5'       30.7294   40.7648   17.1822 C.3    1  FMN1        0.2000
     27  O5'       29.8063   40.6768   16.1168 O.3    1  FMN1       -0.3518
     28  P         29.9838   41.5916   14.8092 P.3    1  FMN1        0.0600
     29  O1P       31.2824   41.3389   14.0860 O.3    1  FMN1       -0.6341
     30  O2P       29.9456   43.0330   15.2425 O.3    1  FMN1       -0.6341
     31  O3P       28.8821   41.2602   13.8405 O.3    1  FMN1       -0.6341
@<TRIPOS>BOND
     1    1    2 am
     2    1   18 1
     3    2    3 2
     4    2    4 am
     5    4    5 am
     6    5    6 2
     7    5    7 1
     8    7    8 ar
     9    7   18 ar
    10    8    9 ar
    11    9   10 ar
    12    9   16 ar
    13   10   11 ar
    14   11   12 1
    15   11   13 ar
    16   13   14 1
    17   13   15 ar
    18   15   16 ar
    19   16   17 ar
    20   17   18 ar
    21   17   19 1
    22   19   20 1
    23   20   21 1
    24   20   22 1
    25   22   23 1
    26   22   24 1
    27   24   25 1
    28   24   26 1
    29   26   27 1
    30   27   28 1
    31   28   29 1
    32   28   30 1
    33   28   31 1
@<TRIPOS>MOLECULE
3F2T
31 33 0 0 0
SMALL
GASTEIGER
 
@<TRIPOS>ATOM
      1  N1        28.4270   34.8300   18.7100 N.am   1  FMN1       -0.0958
      2  C2        28.3290   33.4990   18.3670 C.2    1  FMN1        0.3101
      3  O2        28.6290   33.1310   17.2350 O.2    1  FMN1       -0.2534
      4  N3        27.8930   32.5720   19.2860 N.am   1  FMN1       -0.0727
      5  C4        27.5600   32.9670   20.5670 C.2    1  FMN1        0.2726
      6  O4        27.1880   32.1300   21.3920 O.2    1  FMN1       -0.2695
      7  C4A       27.6550   34.3080   20.9220 C.3    1  FMN1        0.1631
      8  N5        27.3220   34.7100   22.2000 N.pl3  1  FMN1       -0.2381
      9  C5A       27.4190   36.0430   22.5510 C.3    1  FMN1        0.0859
     10  C6        27.0820   36.4480   23.8430 C.3    1  FMN1        0.0336
     11  C7        27.1710   37.7870   24.2050 C.3    1  FMN1       -0.0459
     12  C7M       26.7980   38.1850   25.5980 C.3    1  FMN1        0.0446
     13  C8        27.6070   38.7350   23.2670 C.3    1  FMN1       -0.0462
     14  C8M       27.7260   40.1920   23.6210 C.3    1  FMN1        0.0446
     15  C9        27.9410   38.3280   21.9780 C.3    1  FMN1        0.0295
     16  C9A       27.8480   36.9840   21.6120 C.3    1  FMN1        0.0604
     17  N10       28.1780   36.5770   20.3280 N.pl3  1  FMN1       -0.2823
     18  C10       28.0880   35.2420   19.9830 C.3    1  FMN1        0.1289
     19  C1'       28.5400   37.5840   19.2780 C.3    1  FMN1        0.1471
     20  C2'       27.2964   38.0235   18.5232 C.3    1  FMN1        0.1631
     21  O2'       26.7006   36.9046   17.9239 O.3    1  FMN1       -0.1780
     22  C3'       27.6482   39.0187   17.4303 C.3    1  FMN1        0.1752
     23  O3'       28.2637   40.1354   18.0146 O.3    1  FMN1       -0.1769
     24  C4'       26.4296   39.4918   16.6558 C.3    1  FMN1        0.1715
     25  O4'       25.7979   38.3740   16.0640 O.3    1  FMN1       -0.1772
     26  C5'       26.8514   40.4795   15.5711 C.3    1  FMN1        0.2000
     27  O5'       27.7369   39.8380   14.6771 O.3    1  FMN1       -0.3518
     28  P         28.3627   40.6413   13.4355 P.3    1  FMN1        0.0600
     29  O1P       27.3145   41.1878   12.4997 O.3    1  FMN1       -0.6341
     30  O2P       29.2474   39.6946   12.6687 O.3    1  FMN1       -0.6341
     31  O3P       29.1229   41.8254   13.9663 O.3    1  FMN1       -0.6341
@<TRIPOS>BOND
     1    1    2 am
     2    1   18 1
     3    2    3 2
     4    2    4 am
     5    4    5 am
     6    5    6 2
     7    5    7 1
     8    7    8 ar
     9    7   18 ar
    10    8    9 ar
    11    9   10 ar
    12    9   16 ar
    13   10   11 ar
    14   11   12 1
    15   11   13 ar
    16   13   14 1
    17   13   15 ar
    18   15   16 ar
    19   16   17 ar
    20   17   18 ar
    21   17   19 1
    22   19   20 1
    23   20   21 1
    24   20   22 1
    25   22   23 1
    26   22   24 1
    27   24   25 1
    28   24   26 1
    29   26   27 1
    30   27   28 1
    31   28   29 1
    32   28   30 1
    33   28   31 1
@<TRIPOS>MOLECULE
3F2T
31 33 0 0 0
SMALL
GASTEIGER
 
@<TRIPOS>ATOM
      1  N1        28.4270   34.8300   18.7100 N.am   1  FMN1       -0.0958
      2  C2        28.3290   33.4990   18.3670 C.2    1  FMN1        0.3101
      3  O2        28.6290   33.1310   17.2350 O.2    1  FMN1       -0.2534
      4  N3        27.8930   32.5720   19.2860 N.am   1  FMN1       -0.0727
      5  C4        27.5600   32.9670   20.5670 C.2    1  FMN1        0.2726
      6  O4        27.1880   32.1300   21.3920 O.2    1  FMN1       -0.2695
      7  C4A       27.6550   34.3080   20.9220 C.3    1  FMN1        0.1631
      8  N5        27.3220   34.7100   22.2000 N.pl3  1  FMN1       -0.2381
      9  C5A       27.4190   36.0430   22.5510 C.3    1  FMN1        0.0859
     10  C6        27.0820   36.4480   23.8430 C.3    1  FMN1        0.0336
     11  C7        27.1710   37.7870   24.2050 C.3    1  FMN1       -0.0459
     12  C7M       26.7980   38.1850   25.5980 C.3    1  FMN1        0.0446
     13  C8        27.6070   38.7350   23.2670 C.3    1  FMN1       -0.0462
     14  C8M       27.7260   40.1920   23.6210 C.3    1  FMN1        0.0446
     15  C9        27.9410   38.3280   21.9780 C.3    1  FMN1        0.0295
     16  C9A       27.8480   36.9840   21.6120 C.3    1  FMN1        0.0604
     17  N10       28.1780   36.5770   20.3280 N.pl3  1  FMN1       -0.2823
     18  C10       28.0880   35.2420   19.9830 C.3    1  FMN1        0.1289
     19  C1'       28.5400   37.5840   19.2780 C.3    1  FMN1        0.1471
     20  C2'       30.0388   37.8349   19.2878 C.3    1  FMN1        0.1631
     21  O2'       30.4194   38.3078   20.5517 O.3    1  FMN1       -0.1780
     22  C3'       30.4209   38.8799   18.2531 C.3    1  FMN1        0.1752
     23  O3'       31.8107   39.0657   18.2876 O.3    1  FMN1       -0.1769
     24  C4'       29.7503   40.2206   18.5008 C.3    1  FMN1        0.1715
     25  O4'       30.1445   41.1263   17.4894 O.3    1  FMN1       -0.1772
     26  C5'       30.1589   40.7643   19.8674 C.3    1  FMN1        0.2000
     27  O5'       29.5141   42.0016   20.0871 O.3    1  FMN1       -0.3518
     28  P         27.9111   42.0895   20.1159 P.3    1  FMN1        0.0600
     29  O1P       27.4025   43.4902   20.3454 O.3    1  FMN1       -0.6341
     30  O2P       27.4178   41.2083   21.2326 O.3    1  FMN1       -0.6341
     31  O3P       27.3842   41.6564   18.7754 O.3    1  FMN1       -0.6341
@<TRIPOS>BOND
     1    1    2 am
     2    1   18 1
     3    2    3 2
     4    2    4 am
     5    4    5 am
     6    5    6 2
     7    5    7 1
     8    7    8 ar
     9    7   18 ar
    10    8    9 ar
    11    9   10 ar
    12    9   16 ar
    13   10   11 ar
    14   11   12 1
    15   11   13 ar
    16   13   14 1
    17   13   15 ar
    18   15   16 ar
    19   16   17 ar
    20   17   18 ar
    21   17   19 1
    22   19   20 1
    23   20   21 1
    24   20   22 1
    25   22   23 1
    26   22   24 1
    27   24   25 1
    28   24   26 1
    29   26   27 1
    30   27   28 1
    31   28   29 1
    32   28   30 1
    33   28   31 1
@<TRIPOS>MOLECULE
3F2T
31 33 0 0 0
SMALL
GASTEIGER
 
@<TRIPOS>ATOM
      1  N1        28.4270   34.8300   18.7100 N.am   1   FMN       -0.0958
      2  C2        28.3290   33.4990   18.3670 C.2    1   FMN        0.3101
      3  O2        28.6290   33.1310   17.2350 O.2    1   FMN       -0.2534
      4  N3        27.8930   32.5720   19.2860 N.am   1   FMN       -0.0727
      5  C4        27.5600   32.9670   20.5670 C.2    1   FMN        0.2726
      6  O4        27.1880   32.1300   21.3920 O.2    1   FMN       -0.2695
      7  C4A       27.6550   34.3080   20.9220 C.ar   1   FMN        0.1631
      8  N5        27.3220   34.7100   22.2000 N.ar   1   FMN       -0.2381
      9  C5A       27.4190   36.0430   22.5510 C.ar   1   FMN        0.0859
     10  C6        27.0820   36.4480   23.8430 C.ar   1   FMN        0.0336
     11  C7        27.1710   37.7870   24.2050 C.ar   1   FMN       -0.0459
     12  C7M       26.7980   38.1850   25.5980 C.3    1   FMN        0.0446
     13  C8        27.6070   38.7350   23.2670 C.ar   1   FMN       -0.0462
     14  C8M       27.7260   40.1920   23.6210 C.3    1   FMN        0.0446
     15  C9        27.9410   38.3280   21.9780 C.ar   1   FMN        0.0295
     16  C9A       27.8480   36.9840   21.6120 C.ar   1   FMN        0.0604
     17  N10       28.1780   36.5770   20.3280 N.ar   1   FMN       -0.2823
     18  C10       28.0880   35.2420   19.9830 C.ar   1   FMN        0.1289
     19  C1'       28.5400   37.5840   19.2780 C.3    1   FMN        0.1471
     20  C2'       27.5230   37.5520   18.1490 C.3    1   FMN        0.1631
     21  O2'       27.9830   36.6980   17.1370 O.3    1   FMN       -0.1780
     22  C3'       27.3300   38.9370   17.5530 C.3    1   FMN        0.1752
     23  O3'       28.4990   39.6850   17.7570 O.3    1   FMN       -0.1769
     24  C4'       26.1650   39.6850   18.1790 C.3    1   FMN        0.1715
     25  O4'       25.5470   38.8540   19.1400 O.3    1   FMN       -0.1772
     26  C5'       25.1530   40.0690   17.1020 C.3    1   FMN        0.2000
     27  O5'       24.7110   38.9010   16.4420 O.3    1   FMN       -0.3518
     28  P         23.3400   38.9090   15.6070 P.3    1   FMN        0.0600
     29  O1P       22.1620   38.4090   16.4050 O.co2  1   FMN       -0.6341
     30  O2P       23.5220   38.0180   14.4070 O.co2  1   FMN       -0.6341
     31  O3P       23.0240   40.3270   15.2180 O.co2  1   FMN       -0.6341
@<TRIPOS>BOND
     1    1    2 am
     2    1   18 1
     3    2    3 2
     4    2    4 am
     5    4    5 am
     6    5    6 2
     7    5    7 1
     8    7    8 ar
     9    7   18 ar
    10    8    9 ar
    11    9   10 ar
    12    9   16 ar
    13   10   11 ar
    14   11   12 1
    15   11   13 ar
    16   13   14 1
    17   13   15 ar
    18   15   16 ar
    19   16   17 ar
    20   17   18 ar
    21   17   19 1
    22   19   20 1
    23   20   21 1
    24   20   22 1
    25   22   23 1
    26   22   24 1
    27   24   25 1
    28   24   26 1
    29   26   27 1
    30   27   28 1
    31   28   29 1
    32   28   30 1
    33   28   31 1
@<TRIPOS>MOLECULE
3F2T
31 33 0 0 0
SMALL
GASTEIGER
 
@<TRIPOS>ATOM
      1  N1        28.4270   34.8300   18.7100 N.am   1  FMN1       -0.0958
      2  C2        28.3290   33.4990   18.3670 C.2    1  FMN1        0.3101
      3  O2        28.6290   33.1310   17.2350 O.2    1  FMN1       -0.2534
      4  N3        27.8930   32.5720   19.2860 N.am   1  FMN1       -0.0727
      5  C4        27.5600   32.9670   20.5670 C.2    1  FMN1        0.2726
      6  O4        27.1880   32.1300   21.3920 O.2    1  FMN1       -0.2695
      7  C4A       27.6550   34.3080   20.9220 C.3    1  FMN1        0.1631
      8  N5        27.3220   34.7100   22.2000 N.pl3  1  FMN1       -0.2381
      9  C5A       27.4190   36.0430   22.5510 C.3    1  FMN1        0.0859
     10  C6        27.0820   36.4480   23.8430 C.3    1  FMN1        0.0336
     11  C7        27.1710   37.7870   24.2050 C.3    1  FMN1       -0.0459
     12  C7M       26.7980   38.1850   25.5980 C.3    1  FMN1        0.0446
     13  C8        27.6070   38.7350   23.2670 C.3    1  FMN1       -0.0462
     14  C8M       27.7260   40.1920   23.6210 C.3    1  FMN1        0.0446
     15  C9        27.9410   38.3280   21.9780 C.3    1  FMN1        0.0295
     16  C9A       27.8480   36.9840   21.6120 C.3    1  FMN1        0.0604
     17  N10       28.1780   36.5770   20.3280 N.pl3  1  FMN1       -0.2823
     18  C10       28.0880   35.2420   19.9830 C.3    1  FMN1        0.1289
     19  C1'       28.5400   37.5840   19.2780 C.3    1  FMN1        0.1471
     20  C2'       27.2964   38.0235   18.5232 C.3    1  FMN1        0.1631
     21  O2'       26.7006   36.9046   17.9239 O.3    1  FMN1       -0.1780
     22  C3'       27.6482   39.0187   17.4303 C.3    1  FMN1        0.1752
     23  O3'       28.5251   38.4056   16.5235 O.3    1  FMN1       -0.1769
     24  C4'       28.3160   40.2711   17.9728 C.3    1  FMN1        0.1715
     25  O4'       27.4426   40.8973   18.8915 O.3    1  FMN1       -0.1772
     26  C5'       28.6348   41.2302   16.8289 C.3    1  FMN1        0.2000
     27  O5'       29.4927   40.5878   15.9090 O.3    1  FMN1       -0.3518
     28  P         30.9256   40.0378   16.3808 P.3    1  FMN1        0.0600
     29  O1P       30.8275   38.9912   17.4617 O.3    1  FMN1       -0.6341
     30  O2P       31.7193   41.2033   16.9086 O.3    1  FMN1       -0.6341
     31  O3P       31.5955   39.3795   15.2062 O.3    1  FMN1       -0.6341
@<TRIPOS>BOND
     1    1    2 am
     2    1   18 1
     3    2    3 2
     4    2    4 am
     5    4    5 am
     6    5    6 2
     7    5    7 1
     8    7    8 ar
     9    7   18 ar
    10    8    9 ar
    11    9   10 ar
    12    9   16 ar
    13   10   11 ar
    14   11   12 1
    15   11   13 ar
    16   13   14 1
    17   13   15 ar
    18   15   16 ar
    19   16   17 ar
    20   17   18 ar
    21   17   19 1
    22   19   20 1
    23   20   21 1
    24   20   22 1
    25   22   23 1
    26   22   24 1
    27   24   25 1
    28   24   26 1
    29   26   27 1
    30   27   28 1
    31   28   29 1
    32   28   30 1
    33   28   31 1
@<TRIPOS>MOLECULE
3F2T
31 33 0 0 0
SMALL
GASTEIGER
 
@<TRIPOS>ATOM
      1  N1        28.4270   34.8300   18.7100 N.am   1  FMN1       -0.0958
      2  C2        28.3290   33.4990   18.3670 C.2    1  FMN1        0.3101
      3  O2        28.6290   33.1310   17.2350 O.2    1  FMN1       -0.2534
      4  N3        27.8930   32.5720   19.2860 N.am   1  FMN1       -0.0727
      5  C4        27.5600   32.9670   20.5670 C.2    1  FMN1        0.2726
      6  O4        27.1880   32.1300   21.3920 O.2    1  FMN1       -0.2695
      7  C4A       27.6550   34.3080   20.9220 C.3    1  FMN1        0.1631
      8  N5        27.3220   34.7100   22.2000 N.pl3  1  FMN1       -0.2381
      9  C5A       27.4190   36.0430   22.5510 C.3    1  FMN1        0.0859
     10  C6        27.0820   36.4480   23.8430 C.3    1  FMN1        0.0336
     11  C7        27.1710   37.7870   24.2050 C.3    1  FMN1       -0.0459
     12  C7M       26.7980   38.1850   25.5980 C.3    1  FMN1        0.0446
     13  C8        27.6070   38.7350   23.2670 C.3    1  FMN1       -0.0462
     14  C8M       27.7260   40.1920   23.6210 C.3    1  FMN1        0.0446
     15  C9        27.9410   38.3280   21.9780 C.3    1  FMN1        0.0295
     16  C9A       27.8480   36.9840   21.6120 C.3    1  FMN1        0.0604
     17  N10       28.1780   36.5770   20.3280 N.pl3  1  FMN1       -0.2823
     18  C10       28.0880   35.2420   19.9830 C.3    1  FMN1        0.1289
     19  C1'       28.5400   37.5840   19.2780 C.3    1  FMN1        0.1471
     20  C2'       27.3900   38.5543   19.0646 C.3    1  FMN1        0.1631
     21  O2'       26.2512   37.8399   18.6660 O.3    1  FMN1       -0.1780
     22  C3'       27.7249   39.5621   17.9779 C.3    1  FMN1        0.1752
     23  O3'       28.8751   40.2707   18.3551 O.3    1  FMN1       -0.1769
     24  C4'       26.6031   40.5587   17.7388 C.3    1  FMN1        0.1715
     25  O4'       26.9875   41.4456   16.7070 O.3    1  FMN1       -0.1772
     26  C5'       26.3222   41.3452   19.0165 C.3    1  FMN1        0.2000
     27  O5'       25.9572   40.4476   20.0441 O.3    1  FMN1       -0.3518
     28  P         24.6780   39.4924   19.8731 P.3    1  FMN1        0.0600
     29  O1P       23.3970   40.2574   19.6560 O.3    1  FMN1       -0.6341
     30  O2P       24.5419   38.6700   21.1270 O.3    1  FMN1       -0.6341
     31  O3P       24.8791   38.6376   18.6521 O.3    1  FMN1       -0.6341
@<TRIPOS>BOND
     1    1    2 am
     2    1   18 1
     3    2    3 2
     4    2    4 am
     5    4    5 am
     6    5    6 2
     7    5    7 1
     8    7    8 ar
     9    7   18 ar
    10    8    9 ar
    11    9   10 ar
    12    9   16 ar
    13   10   11 ar
    14   11   12 1
    15   11   13 ar
    16   13   14 1
    17   13   15 ar
    18   15   16 ar
    19   16   17 ar
    20   17   18 ar
    21   17   19 1
    22   19   20 1
    23   20   21 1
    24   20   22 1
    25   22   23 1
    26   22   24 1
    27   24   25 1
    28   24   26 1
    29   26   27 1
    30   27   28 1
    31   28   29 1
    32   28   30 1
    33   28   31 1
@<TRIPOS>MOLECULE
3F2T
31 33 0 0 0
SMALL
GASTEIGER
 
@<TRIPOS>ATOM
      1  N1        28.4270   34.8300   18.7100 N.am   1  FMN1       -0.0958
      2  C2        28.3290   33.4990   18.3670 C.2    1  FMN1        0.3101
      3  O2        28.6290   33.1310   17.2350 O.2    1  FMN1       -0.2534
      4  N3        27.8930   32.5720   19.2860 N.am   1  FMN1       -0.0727
      5  C4        27.5600   32.9670   20.5670 C.2    1  FMN1        0.2726
      6  O4        27.1880   32.1300   21.3920 O.2    1  FMN1       -0.2695
      7  C4A       27.6550   34.3080   20.9220 C.3    1  FMN1        0.1631
      8  N5        27.3220   34.7100   22.2000 N.pl3  1  FMN1       -0.2381
      9  C5A       27.4190   36.0430   22.5510 C.3    1  FMN1        0.0859
     10  C6        27.0820   36.4480   23.8430 C.3    1  FMN1        0.0336
     11  C7        27.1710   37.7870   24.2050 C.3    1  FMN1       -0.0459
     12  C7M       26.7980   38.1850   25.5980 C.3    1  FMN1        0.0446
     13  C8        27.6070   38.7350   23.2670 C.3    1  FMN1       -0.0462
     14  C8M       27.7260   40.1920   23.6210 C.3    1  FMN1        0.0446
     15  C9        27.9410   38.3280   21.9780 C.3    1  FMN1        0.0295
     16  C9A       27.8480   36.9840   21.6120 C.3    1  FMN1        0.0604
     17  N10       28.1780   36.5770   20.3280 N.pl3  1  FMN1       -0.2823
     18  C10       28.0880   35.2420   19.9830 C.3    1  FMN1        0.1289
     19  C1'       28.5400   37.5840   19.2780 C.3    1  FMN1        0.1471
     20  C2'       27.2964   38.0235   18.5232 C.3    1  FMN1        0.1631
     21  O2'       26.7006   36.9046   17.9239 O.3    1  FMN1       -0.1780
     22  C3'       27.6482   39.0187   17.4303 C.3    1  FMN1        0.1752
     23  O3'       28.5251   38.4056   16.5235 O.3    1  FMN1       -0.1769
     24  C4'       28.3160   40.2711   17.9728 C.3    1  FMN1        0.1715
     25  O4'       29.5182   39.9074   18.6218 O.3    1  FMN1       -0.1772
     26  C5'       27.3877   40.9711   18.9620 C.3    1  FMN1        0.2000
     27  O5'       27.1138   40.0995   20.0391 O.3    1  FMN1       -0.3518
     28  P         26.1446   40.5615   21.2330 P.3    1  FMN1        0.0600
     29  O1P       24.7489   40.8879   20.7652 O.3    1  FMN1       -0.6341
     30  O2P       26.7410   41.7908   21.8657 O.3    1  FMN1       -0.6341
     31  O3P       26.0146   39.4257   22.2103 O.3    1  FMN1       -0.6341
@<TRIPOS>BOND
     1    1    2 am
     2    1   18 1
     3    2    3 2
     4    2    4 am
     5    4    5 am
     6    5    6 2
     7    5    7 1
     8    7    8 ar
     9    7   18 ar
    10    8    9 ar
    11    9   10 ar
    12    9   16 ar
    13   10   11 ar
    14   11   12 1
    15   11   13 ar
    16   13   14 1
    17   13   15 ar
    18   15   16 ar
    19   16   17 ar
    20   17   18 ar
    21   17   19 1
    22   19   20 1
    23   20   21 1
    24   20   22 1
    25   22   23 1
    26   22   24 1
    27   24   25 1
    28   24   26 1
    29   26   27 1
    30   27   28 1
    31   28   29 1
    32   28   30 1
    33   28   31 1
@<TRIPOS>MOLECULE
3F2T
31 33 0 0 0
SMALL
GASTEIGER
 
@<TRIPOS>ATOM
      1  N1        28.4270   34.8300   18.7100 N.am   1  FMN1       -0.0958
      2  C2        28.3290   33.4990   18.3670 C.2    1  FMN1        0.3101
      3  O2        28.6290   33.1310   17.2350 O.2    1  FMN1       -0.2534
      4  N3        27.8930   32.5720   19.2860 N.am   1  FMN1       -0.0727
      5  C4        27.5600   32.9670   20.5670 C.2    1  FMN1        0.2726
      6  O4        27.1880   32.1300   21.3920 O.2    1  FMN1       -0.2695
      7  C4A       27.6550   34.3080   20.9220 C.3    1  FMN1        0.1631
      8  N5        27.3220   34.7100   22.2000 N.pl3  1  FMN1       -0.2381
      9  C5A       27.4190   36.0430   22.5510 C.3    1  FMN1        0.0859
     10  C6        27.0820   36.4480   23.8430 C.3    1  FMN1        0.0336
     11  C7        27.1710   37.7870   24.2050 C.3    1  FMN1       -0.0459
     12  C7M       26.7980   38.1850   25.5980 C.3    1  FMN1        0.0446
     13  C8        27.6070   38.7350   23.2670 C.3    1  FMN1       -0.0462
     14  C8M       27.7260   40.1920   23.6210 C.3    1  FMN1        0.0446
     15  C9        27.9410   38.3280   21.9780 C.3    1  FMN1        0.0295
     16  C9A       27.8480   36.9840   21.6120 C.3    1  FMN1        0.0604
     17  N10       28.1780   36.5770   20.3280 N.pl3  1  FMN1       -0.2823
     18  C10       28.0880   35.2420   19.9830 C.3    1  FMN1        0.1289
     19  C1'       28.5400   37.5840   19.2780 C.3    1  FMN1        0.1471
     20  C2'       27.2964   38.0235   18.5232 C.3    1  FMN1        0.1631
     21  O2'       26.3962   38.6146   19.4211 O.3    1  FMN1       -0.1780
     22  C3'       26.6087   36.8353   17.8719 C.3    1  FMN1        0.1752
     23  O3'       27.5057   36.2220   16.9851 O.3    1  FMN1       -0.1769
     24  C4'       25.3632   37.2328   17.0976 C.3    1  FMN1        0.1715
     25  O4'       24.7783   36.0728   16.5399 O.3    1  FMN1       -0.1772
     26  C5'       25.7302   38.2110   15.9847 C.3    1  FMN1        0.2000
     27  O5'       24.5595   38.5816   15.2869 O.3    1  FMN1       -0.3518
     28  P         24.6400   39.5949   14.0439 P.3    1  FMN1        0.0600
     29  O1P       25.2214   40.9358   14.4143 O.3    1  FMN1       -0.6341
     30  O2P       23.2427   39.8024   13.5229 O.3    1  FMN1       -0.6341
     31  O3P       25.5523   39.0046   13.0040 O.3    1  FMN1       -0.6341
@<TRIPOS>BOND
     1    1    2 am
     2    1   18 1
     3    2    3 2
     4    2    4 am
     5    4    5 am
     6    5    6 2
     7    5    7 1
     8    7    8 ar
     9    7   18 ar
    10    8    9 ar
    11    9   10 ar
    12    9   16 ar
    13   10   11 ar
    14   11   12 1
    15   11   13 ar
    16   13   14 1
    17   13   15 ar
    18   15   16 ar
    19   16   17 ar
    20   17   18 ar
    21   17   19 1
    22   19   20 1
    23   20   21 1
    24   20   22 1
    25   22   23 1
    26   22   24 1
    27   24   25 1
    28   24   26 1
    29   26   27 1
    30   27   28 1
    31   28   29 1
    32   28   30 1
    33   28   31 1
@<TRIPOS>MOLECULE
3F2T
31 33 0 0 0
SMALL
GASTEIGER
 
@<TRIPOS>ATOM
      1  N1        28.4270   34.8300   18.7100 N.am   1  FMN1       -0.0958
      2  C2        28.3290   33.4990   18.3670 C.2    1  FMN1        0.3101
      3  O2        28.6290   33.1310   17.2350 O.2    1  FMN1       -0.2534
      4  N3        27.8930   32.5720   19.2860 N.am   1  FMN1       -0.0727
      5  C4        27.5600   32.9670   20.5670 C.2    1  FMN1        0.2726
      6  O4        27.1880   32.1300   21.3920 O.2    1  FMN1       -0.2695
      7  C4A       27.6550   34.3080   20.9220 C.3    1  FMN1        0.1631
      8  N5        27.3220   34.7100   22.2000 N.pl3  1  FMN1       -0.2381
      9  C5A       27.4190   36.0430   22.5510 C.3    1  FMN1        0.0859
     10  C6        27.0820   36.4480   23.8430 C.3    1  FMN1        0.0336
     11  C7        27.1710   37.7870   24.2050 C.3    1  FMN1       -0.0459
     12  C7M       26.7980   38.1850   25.5980 C.3    1  FMN1        0.0446
     13  C8        27.6070   38.7350   23.2670 C.3    1  FMN1       -0.0462
     14  C8M       27.7260   40.1920   23.6210 C.3    1  FMN1        0.0446
     15  C9        27.9410   38.3280   21.9780 C.3    1  FMN1        0.0295
     16  C9A       27.8480   36.9840   21.6120 C.3    1  FMN1        0.0604
     17  N10       28.1780   36.5770   20.3280 N.pl3  1  FMN1       -0.2823
     18  C10       28.0880   35.2420   19.9830 C.3    1  FMN1        0.1289
     19  C1'       28.5400   37.5840   19.2780 C.3    1  FMN1        0.1471
     20  C2'       27.3900   38.5543   19.0646 C.3    1  FMN1        0.1631
     21  O2'       26.2512   37.8399   18.6660 O.3    1  FMN1       -0.1780
     22  C3'       27.7249   39.5621   17.9779 C.3    1  FMN1        0.1752
     23  O3'       27.9554   38.8749   16.7771 O.3    1  FMN1       -0.1769
     24  C4'       28.9590   40.3860   18.3048 C.3    1  FMN1        0.1715
     25  O4'       30.0682   39.5199   18.4397 O.3    1  FMN1       -0.1772
     26  C5'       28.7441   41.1549   19.6058 C.3    1  FMN1        0.2000
     27  O5'       29.8935   41.9267   19.8850 O.3    1  FMN1       -0.3518
     28  P         29.9629   42.8328   21.2088 P.3    1  FMN1        0.0600
     29  O1P       29.8404   42.0296   22.4789 O.3    1  FMN1       -0.6341
     30  O2P       28.8301   43.8231   21.1533 O.3    1  FMN1       -0.6341
     31  O3P       31.3060   43.5080   21.2564 O.3    1  FMN1       -0.6341
@<TRIPOS>BOND
     1    1    2 am
     2    1   18 1
     3    2    3 2
     4    2    4 am
     5    4    5 am
     6    5    6 2
     7    5    7 1
     8    7    8 ar
     9    7   18 ar
    10    8    9 ar
    11    9   10 ar
    12    9   16 ar
    13   10   11 ar
    14   11   12 1
    15   11   13 ar
    16   13   14 1
    17   13   15 ar
    18   15   16 ar
    19   16   17 ar
    20   17   18 ar
    21   17   19 1
    22   19   20 1
    23   20   21 1
    24   20   22 1
    25   22   23 1
    26   22   24 1
    27   24   25 1
    28   24   26 1
    29   26   27 1
    30   27   28 1
    31   28   29 1
    32   28   30 1
    33   28   31 1
@<TRIPOS>MOLECULE
3F2T
31 33 0 0 0
SMALL
GASTEIGER
 
@<TRIPOS>ATOM
      1  N1        28.4270   34.8300   18.7100 N.am   1  FMN1       -0.0958
      2  C2        28.3290   33.4990   18.3670 C.2    1  FMN1        0.3101
      3  O2        28.6290   33.1310   17.2350 O.2    1  FMN1       -0.2534
      4  N3        27.8930   32.5720   19.2860 N.am   1  FMN1       -0.0727
      5  C4        27.5600   32.9670   20.5670 C.2    1  FMN1        0.2726
      6  O4        27.1880   32.1300   21.3920 O.2    1  FMN1       -0.2695
      7  C4A       27.6550   34.3080   20.9220 C.3    1  FMN1        0.1631
      8  N5        27.3220   34.7100   22.2000 N.pl3  1  FMN1       -0.2381
      9  C5A       27.4190   36.0430   22.5510 C.3    1  FMN1        0.0859
     10  C6        27.0820   36.4480   23.8430 C.3    1  FMN1        0.0336
     11  C7        27.1710   37.7870   24.2050 C.3    1  FMN1       -0.0459
     12  C7M       26.7980   38.1850   25.5980 C.3    1  FMN1        0.0446
     13  C8        27.6070   38.7350   23.2670 C.3    1  FMN1       -0.0462
     14  C8M       27.7260   40.1920   23.6210 C.3    1  FMN1        0.0446
     15  C9        27.9410   38.3280   21.9780 C.3    1  FMN1        0.0295
     16  C9A       27.8480   36.9840   21.6120 C.3    1  FMN1        0.0604
     17  N10       28.1780   36.5770   20.3280 N.pl3  1  FMN1       -0.2823
     18  C10       28.0880   35.2420   19.9830 C.3    1  FMN1        0.1289
     19  C1'       28.5400   37.5840   19.2780 C.3    1  FMN1        0.1471
     20  C2'       29.9493   37.3276   18.7705 C.3    1  FMN1        0.1631
     21  O2'       30.8489   37.4140   19.8426 O.3    1  FMN1       -0.1780
     22  C3'       30.3476   38.3606   17.7298 C.3    1  FMN1        0.1752
     23  O3'       30.3114   39.6338   18.3172 O.3    1  FMN1       -0.1769
     24  C4'       29.4240   38.3613   16.5233 C.3    1  FMN1        0.1715
     25  O4'       29.4492   37.0813   15.9236 O.3    1  FMN1       -0.1772
     26  C5'       29.8826   39.4119   15.5153 C.3    1  FMN1        0.2000
     27  O5'       29.0042   39.4096   14.4093 O.3    1  FMN1       -0.3518
     28  P         29.2486   40.4063   13.1744 P.3    1  FMN1        0.0600
     29  O1P       29.2383   41.8586   13.5793 O.3    1  FMN1       -0.6341
     30  O2P       28.1510   40.1781   12.1694 O.3    1  FMN1       -0.6341
     31  O3P       30.6111   40.1311   12.6000 O.3    1  FMN1       -0.6341
@<TRIPOS>BOND
     1    1    2 am
     2    1   18 1
     3    2    3 2
     4    2    4 am
     5    4    5 am
     6    5    6 2
     7    5    7 1
     8    7    8 ar
     9    7   18 ar
    10    8    9 ar
    11    9   10 ar
    12    9   16 ar
    13   10   11 ar
    14   11   12 1
    15   11   13 ar
    16   13   14 1
    17   13   15 ar
    18   15   16 ar
    19   16   17 ar
    20   17   18 ar
    21   17   19 1
    22   19   20 1
    23   20   21 1
    24   20   22 1
    25   22   23 1
    26   22   24 1
    27   24   25 1
    28   24   26 1
    29   26   27 1
    30   27   28 1
    31   28   29 1
    32   28   30 1
    33   28   31 1
@<TRIPOS>MOLECULE
3F2T
31 33 0 0 0
SMALL
GASTEIGER
 
@<TRIPOS>ATOM
      1  N1        28.4270   34.8300   18.7100 N.am   1  FMN1       -0.0958
      2  C2        28.3290   33.4990   18.3670 C.2    1  FMN1        0.3101
      3  O2        28.6290   33.1310   17.2350 O.2    1  FMN1       -0.2534
      4  N3        27.8930   32.5720   19.2860 N.am   1  FMN1       -0.0727
      5  C4        27.5600   32.9670   20.5670 C.2    1  FMN1        0.2726
      6  O4        27.1880   32.1300   21.3920 O.2    1  FMN1       -0.2695
      7  C4A       27.6550   34.3080   20.9220 C.3    1  FMN1        0.1631
      8  N5        27.3220   34.7100   22.2000 N.pl3  1  FMN1       -0.2381
      9  C5A       27.4190   36.0430   22.5510 C.3    1  FMN1        0.0859
     10  C6        27.0820   36.4480   23.8430 C.3    1  FMN1        0.0336
     11  C7        27.1710   37.7870   24.2050 C.3    1  FMN1       -0.0459
     12  C7M       26.7980   38.1850   25.5980 C.3    1  FMN1        0.0446
     13  C8        27.6070   38.7350   23.2670 C.3    1  FMN1       -0.0462
     14  C8M       27.7260   40.1920   23.6210 C.3    1  FMN1        0.0446
     15  C9        27.9410   38.3280   21.9780 C.3    1  FMN1        0.0295
     16  C9A       27.8480   36.9840   21.6120 C.3    1  FMN1        0.0604
     17  N10       28.1780   36.5770   20.3280 N.pl3  1  FMN1       -0.2823
     18  C10       28.0880   35.2420   19.9830 C.3    1  FMN1        0.1289
     19  C1'       28.5400   37.5840   19.2780 C.3    1  FMN1        0.1471
     20  C2'       29.9493   37.3276   18.7705 C.3    1  FMN1        0.1631
     21  O2'       30.8489   37.4140   19.8426 O.3    1  FMN1       -0.1780
     22  C3'       30.3476   38.3606   17.7298 C.3    1  FMN1        0.1752
     23  O3'       31.6452   38.0749   17.2803 O.3    1  FMN1       -0.1769
     24  C4'       30.3295   39.7783   18.2762 C.3    1  FMN1        0.1715
     25  O4'       29.0265   40.0777   18.7360 O.3    1  FMN1       -0.1772
     26  C5'       30.7294   40.7648   17.1822 C.3    1  FMN1        0.2000
     27  O5'       30.7228   42.0741   17.7118 O.3    1  FMN1       -0.3518
     28  P         31.6893   42.4620   18.9339 P.3    1  FMN1        0.0600
     29  O1P       31.4468   41.6253   20.1645 O.3    1  FMN1       -0.6341
     30  O2P       31.4455   43.9074   19.2778 O.3    1  FMN1       -0.6341
     31  O3P       33.1122   42.2093   18.5172 O.3    1  FMN1       -0.6341
@<TRIPOS>BOND
     1    1    2 am
     2    1   18 1
     3    2    3 2
     4    2    4 am
     5    4    5 am
     6    5    6 2
     7    5    7 1
     8    7    8 ar
     9    7   18 ar
    10    8    9 ar
    11    9   10 ar
    12    9   16 ar
    13   10   11 ar
    14   11   12 1
    15   11   13 ar
    16   13   14 1
    17   13   15 ar
    18   15   16 ar
    19   16   17 ar
    20   17   18 ar
    21   17   19 1
    22   19   20 1
    23   20   21 1
    24   20   22 1
    25   22   23 1
    26   22   24 1
    27   24   25 1
    28   24   26 1
    29   26   27 1
    30   27   28 1
    31   28   29 1
    32   28   30 1
    33   28   31 1
@<TRIPOS>MOLECULE
3F2T
31 33 0 0 0
SMALL
GASTEIGER
 
@<TRIPOS>ATOM
      1  N1        28.4270   34.8300   18.7100 N.am   1  FMN1       -0.0958
      2  C2        28.3290   33.4990   18.3670 C.2    1  FMN1        0.3101
      3  O2        28.6290   33.1310   17.2350 O.2    1  FMN1       -0.2534
      4  N3        27.8930   32.5720   19.2860 N.am   1  FMN1       -0.0727
      5  C4        27.5600   32.9670   20.5670 C.2    1  FMN1        0.2726
      6  O4        27.1880   32.1300   21.3920 O.2    1  FMN1       -0.2695
      7  C4A       27.6550   34.3080   20.9220 C.3    1  FMN1        0.1631
      8  N5        27.3220   34.7100   22.2000 N.pl3  1  FMN1       -0.2381
      9  C5A       27.4190   36.0430   22.5510 C.3    1  FMN1        0.0859
     10  C6        27.0820   36.4480   23.8430 C.3    1  FMN1        0.0336
     11  C7        27.1710   37.7870   24.2050 C.3    1  FMN1       -0.0459
     12  C7M       26.7980   38.1850   25.5980 C.3    1  FMN1        0.0446
     13  C8        27.6070   38.7350   23.2670 C.3    1  FMN1       -0.0462
     14  C8M       27.7260   40.1920   23.6210 C.3    1  FMN1        0.0446
     15  C9        27.9410   38.3280   21.9780 C.3    1  FMN1        0.0295
     16  C9A       27.8480   36.9840   21.6120 C.3    1  FMN1        0.0604
     17  N10       28.1780   36.5770   20.3280 N.pl3  1  FMN1       -0.2823
     18  C10       28.0880   35.2420   19.9830 C.3    1  FMN1        0.1289
     19  C1'       28.5400   37.5840   19.2780 C.3    1  FMN1        0.1471
     20  C2'       30.0388   37.8349   19.2878 C.3    1  FMN1        0.1631
     21  O2'       30.4194   38.3078   20.5517 O.3    1  FMN1       -0.1780
     22  C3'       30.4209   38.8799   18.2531 C.3    1  FMN1        0.1752
     23  O3'       30.0274   38.4278   16.9850 O.3    1  FMN1       -0.1769
     24  C4'       31.9151   39.1543   18.2233 C.3    1  FMN1        0.1715
     25  O4'       32.3252   39.6080   19.4979 O.3    1  FMN1       -0.1772
     26  C5'       32.2302   40.2157   17.1724 C.3    1  FMN1        0.2000
     27  O5'       31.5552   41.4116   17.5026 O.3    1  FMN1       -0.3518
     28  P         31.6863   42.7060   16.5615 P.3    1  FMN1        0.0600
     29  O1P       31.1820   42.4686   15.1606 O.3    1  FMN1       -0.6341
     30  O2P       33.1421   43.0841   16.4924 O.3    1  FMN1       -0.6341
     31  O3P       30.8404   43.8063   17.1410 O.3    1  FMN1       -0.6341
@<TRIPOS>BOND
     1    1    2 am
     2    1   18 1
     3    2    3 2
     4    2    4 am
     5    4    5 am
     6    5    6 2
     7    5    7 1
     8    7    8 ar
     9    7   18 ar
    10    8    9 ar
    11    9   10 ar
    12    9   16 ar
    13   10   11 ar
    14   11   12 1
    15   11   13 ar
    16   13   14 1
    17   13   15 ar
    18   15   16 ar
    19   16   17 ar
    20   17   18 ar
    21   17   19 1
    22   19   20 1
    23   20   21 1
    24   20   22 1
    25   22   23 1
    26   22   24 1
    27   24   25 1
    28   24   26 1
    29   26   27 1
    30   27   28 1
    31   28   29 1
    32   28   30 1
    33   28   31 1
@<TRIPOS>MOLECULE
3F2T
31 33 0 0 0
SMALL
GASTEIGER
 
@<TRIPOS>ATOM
      1  N1        28.4270   34.8300   18.7100 N.am   1  FMN1       -0.0958
      2  C2        28.3290   33.4990   18.3670 C.2    1  FMN1        0.3101
      3  O2        28.6290   33.1310   17.2350 O.2    1  FMN1       -0.2534
      4  N3        27.8930   32.5720   19.2860 N.am   1  FMN1       -0.0727
      5  C4        27.5600   32.9670   20.5670 C.2    1  FMN1        0.2726
      6  O4        27.1880   32.1300   21.3920 O.2    1  FMN1       -0.2695
      7  C4A       27.6550   34.3080   20.9220 C.3    1  FMN1        0.1631
      8  N5        27.3220   34.7100   22.2000 N.pl3  1  FMN1       -0.2381
      9  C5A       27.4190   36.0430   22.5510 C.3    1  FMN1        0.0859
     10  C6        27.0820   36.4480   23.8430 C.3    1  FMN1        0.0336
     11  C7        27.1710   37.7870   24.2050 C.3    1  FMN1       -0.0459
     12  C7M       26.7980   38.1850   25.5980 C.3    1  FMN1        0.0446
     13  C8        27.6070   38.7350   23.2670 C.3    1  FMN1       -0.0462
     14  C8M       27.7260   40.1920   23.6210 C.3    1  FMN1        0.0446
     15  C9        27.9410   38.3280   21.9780 C.3    1  FMN1        0.0295
     16  C9A       27.8480   36.9840   21.6120 C.3    1  FMN1        0.0604
     17  N10       28.1780   36.5770   20.3280 N.pl3  1  FMN1       -0.2823
     18  C10       28.0880   35.2420   19.9830 C.3    1  FMN1        0.1289
     19  C1'       28.5400   37.5840   19.2780 C.3    1  FMN1        0.1471
     20  C2'       27.2964   38.0235   18.5232 C.3    1  FMN1        0.1631
     21  O2'       26.7006   36.9046   17.9239 O.3    1  FMN1       -0.1780
     22  C3'       27.6482   39.0187   17.4303 C.3    1  FMN1        0.1752
     23  O3'       26.4711   39.4068   16.7738 O.3    1  FMN1       -0.1769
     24  C4'       28.6054   38.4423   16.4006 C.3    1  FMN1        0.1715
     25  O4'       29.7959   38.0440   17.0508 O.3    1  FMN1       -0.1772
     26  C5'       28.9242   39.4918   15.3390 C.3    1  FMN1        0.2000
     27  O5'       29.8011   38.9340   14.3825 O.3    1  FMN1       -0.3518
     28  P         30.3261   39.8166   13.1481 P.3    1  FMN1        0.0600
     29  O1P       31.1088   41.0297   13.5828 O.3    1  FMN1       -0.6341
     30  O2P       29.1268   40.2731   12.3607 O.3    1  FMN1       -0.6341
     31  O3P       31.2613   38.9761   12.3228 O.3    1  FMN1       -0.6341
@<TRIPOS>BOND
     1    1    2 am
     2    1   18 1
     3    2    3 2
     4    2    4 am
     5    4    5 am
     6    5    6 2
     7    5    7 1
     8    7    8 ar
     9    7   18 ar
    10    8    9 ar
    11    9   10 ar
    12    9   16 ar
    13   10   11 ar
    14   11   12 1
    15   11   13 ar
    16   13   14 1
    17   13   15 ar
    18   15   16 ar
    19   16   17 ar
    20   17   18 ar
    21   17   19 1
    22   19   20 1
    23   20   21 1
    24   20   22 1
    25   22   23 1
    26   22   24 1
    27   24   25 1
    28   24   26 1
    29   26   27 1
    30   27   28 1
    31   28   29 1
    32   28   30 1
    33   28   31 1
@<TRIPOS>MOLECULE
3F2T
31 33 0 0 0
SMALL
GASTEIGER
 
@<TRIPOS>ATOM
      1  N1        28.4270   34.8300   18.7100 N.am   1  FMN1       -0.0958
      2  C2        28.3290   33.4990   18.3670 C.2    1  FMN1        0.3101
      3  O2        28.6290   33.1310   17.2350 O.2    1  FMN1       -0.2534
      4  N3        27.8930   32.5720   19.2860 N.am   1  FMN1       -0.0727
      5  C4        27.5600   32.9670   20.5670 C.2    1  FMN1        0.2726
      6  O4        27.1880   32.1300   21.3920 O.2    1  FMN1       -0.2695
      7  C4A       27.6550   34.3080   20.9220 C.3    1  FMN1        0.1631
      8  N5        27.3220   34.7100   22.2000 N.pl3  1  FMN1       -0.2381
      9  C5A       27.4190   36.0430   22.5510 C.3    1  FMN1        0.0859
     10  C6        27.0820   36.4480   23.8430 C.3    1  FMN1        0.0336
     11  C7        27.1710   37.7870   24.2050 C.3    1  FMN1       -0.0459
     12  C7M       26.7980   38.1850   25.5980 C.3    1  FMN1        0.0446
     13  C8        27.6070   38.7350   23.2670 C.3    1  FMN1       -0.0462
     14  C8M       27.7260   40.1920   23.6210 C.3    1  FMN1        0.0446
     15  C9        27.9410   38.3280   21.9780 C.3    1  FMN1        0.0295
     16  C9A       27.8480   36.9840   21.6120 C.3    1  FMN1        0.0604
     17  N10       28.1780   36.5770   20.3280 N.pl3  1  FMN1       -0.2823
     18  C10       28.0880   35.2420   19.9830 C.3    1  FMN1        0.1289
     19  C1'       28.5400   37.5840   19.2780 C.3    1  FMN1        0.1471
     20  C2'       27.5742   37.4910   18.1083 C.3    1  FMN1        0.1631
     21  O2'       27.6282   36.1988   17.5668 O.3    1  FMN1       -0.1780
     22  C3'       27.9464   38.4809   17.0173 C.3    1  FMN1        0.1752
     23  O3'       27.9158   39.7775   17.5513 O.3    1  FMN1       -0.1769
     24  C4'       26.9987   38.4271   15.8308 C.3    1  FMN1        0.1715
     25  O4'       27.4234   39.3626   14.8597 O.3    1  FMN1       -0.1772
     26  C5'       25.5787   38.7604   16.2812 C.3    1  FMN1        0.2000
     27  O5'       25.1725   37.8307   17.2638 O.3    1  FMN1       -0.3518
     28  P         23.7073   37.9230   17.9143 P.3    1  FMN1        0.0600
     29  O1P       23.4573   36.8606   18.9546 O.3    1  FMN1       -0.6341
     30  O2P       22.6978   37.7625   16.8089 O.3    1  FMN1       -0.6341
     31  O3P       23.5774   39.2477   18.6145 O.3    1  FMN1       -0.6341
@<TRIPOS>BOND
     1    1    2 am
     2    1   18 1
     3    2    3 2
     4    2    4 am
     5    4    5 am
     6    5    6 2
     7    5    7 1
     8    7    8 ar
     9    7   18 ar
    10    8    9 ar
    11    9   10 ar
    12    9   16 ar
    13   10   11 ar
    14   11   12 1
    15   11   13 ar
    16   13   14 1
    17   13   15 ar
    18   15   16 ar
    19   16   17 ar
    20   17   18 ar
    21   17   19 1
    22   19   20 1
    23   20   21 1
    24   20   22 1
    25   22   23 1
    26   22   24 1
    27   24   25 1
    28   24   26 1
    29   26   27 1
    30   27   28 1
    31   28   29 1
    32   28   30 1
    33   28   31 1
@<TRIPOS>MOLECULE
3F2T
31 33 0 0 0
SMALL
GASTEIGER
 
@<TRIPOS>ATOM
      1  N1        28.4270   34.8300   18.7100 N.am   1  FMN1       -0.0958
      2  C2        28.3290   33.4990   18.3670 C.2    1  FMN1        0.3101
      3  O2        28.6290   33.1310   17.2350 O.2    1  FMN1       -0.2534
      4  N3        27.8930   32.5720   19.2860 N.am   1  FMN1       -0.0727
      5  C4        27.5600   32.9670   20.5670 C.2    1  FMN1        0.2726
      6  O4        27.1880   32.1300   21.3920 O.2    1  FMN1       -0.2695
      7  C4A       27.6550   34.3080   20.9220 C.3    1  FMN1        0.1631
      8  N5        27.3220   34.7100   22.2000 N.pl3  1  FMN1       -0.2381
      9  C5A       27.4190   36.0430   22.5510 C.3    1  FMN1        0.0859
     10  C6        27.0820   36.4480   23.8430 C.3    1  FMN1        0.0336
     11  C7        27.1710   37.7870   24.2050 C.3    1  FMN1       -0.0459
     12  C7M       26.7980   38.1850   25.5980 C.3    1  FMN1        0.0446
     13  C8        27.6070   38.7350   23.2670 C.3    1  FMN1       -0.0462
     14  C8M       27.7260   40.1920   23.6210 C.3    1  FMN1        0.0446
     15  C9        27.9410   38.3280   21.9780 C.3    1  FMN1        0.0295
     16  C9A       27.8480   36.9840   21.6120 C.3    1  FMN1        0.0604
     17  N10       28.1780   36.5770   20.3280 N.pl3  1  FMN1       -0.2823
     18  C10       28.0880   35.2420   19.9830 C.3    1  FMN1        0.1289
     19  C1'       28.5400   37.5840   19.2780 C.3    1  FMN1        0.1471
     20  C2'       30.0388   37.8349   19.2878 C.3    1  FMN1        0.1631
     21  O2'       30.4194   38.3078   20.5517 O.3    1  FMN1       -0.1780
     22  C3'       30.4209   38.8799   18.2531 C.3    1  FMN1        0.1752
     23  O3'       29.7670   40.0822   18.5596 O.3    1  FMN1       -0.1769
     24  C4'       30.0385   38.4712   16.8405 C.3    1  FMN1        0.1715
     25  O4'       30.6894   37.2576   16.5203 O.3    1  FMN1       -0.1772
     26  C5'       30.4561   39.5565   15.8517 C.3    1  FMN1        0.2000
     27  O5'       31.8570   39.7261   15.9119 O.3    1  FMN1       -0.3518
     28  P         32.5843   40.8201   14.9886 P.3    1  FMN1        0.0600
     29  O1P       32.1125   42.2263   15.2595 O.3    1  FMN1       -0.6341
     30  O2P       32.2921   40.4820   13.5508 O.3    1  FMN1       -0.6341
     31  O3P       34.0577   40.7967   15.2896 O.3    1  FMN1       -0.6341
@<TRIPOS>BOND
     1    1    2 am
     2    1   18 1
     3    2    3 2
     4    2    4 am
     5    4    5 am
     6    5    6 2
     7    5    7 1
     8    7    8 ar
     9    7   18 ar
    10    8    9 ar
    11    9   10 ar
    12    9   16 ar
    13   10   11 ar
    14   11   12 1
    15   11   13 ar
    16   13   14 1
    17   13   15 ar
    18   15   16 ar
    19   16   17 ar
    20   17   18 ar
    21   17   19 1
    22   19   20 1
    23   20   21 1
    24   20   22 1
    25   22   23 1
    26   22   24 1
    27   24   25 1
    28   24   26 1
    29   26   27 1
    30   27   28 1
    31   28   29 1
    32   28   30 1
    33   28   31 1
@<TRIPOS>MOLECULE
3F2T
31 33 0 0 0
SMALL
GASTEIGER
 
@<TRIPOS>ATOM
      1  N1        28.4270   34.8300   18.7100 N.am   1  FMN1       -0.0958
      2  C2        28.3290   33.4990   18.3670 C.2    1  FMN1        0.3101
      3  O2        28.6290   33.1310   17.2350 O.2    1  FMN1       -0.2534
      4  N3        27.8930   32.5720   19.2860 N.am   1  FMN1       -0.0727
      5  C4        27.5600   32.9670   20.5670 C.2    1  FMN1        0.2726
      6  O4        27.1880   32.1300   21.3920 O.2    1  FMN1       -0.2695
      7  C4A       27.6550   34.3080   20.9220 C.3    1  FMN1        0.1631
      8  N5        27.3220   34.7100   22.2000 N.pl3  1  FMN1       -0.2381
      9  C5A       27.4190   36.0430   22.5510 C.3    1  FMN1        0.0859
     10  C6        27.0820   36.4480   23.8430 C.3    1  FMN1        0.0336
     11  C7        27.1710   37.7870   24.2050 C.3    1  FMN1       -0.0459
     12  C7M       26.7980   38.1850   25.5980 C.3    1  FMN1        0.0446
     13  C8        27.6070   38.7350   23.2670 C.3    1  FMN1       -0.0462
     14  C8M       27.7260   40.1920   23.6210 C.3    1  FMN1        0.0446
     15  C9        27.9410   38.3280   21.9780 C.3    1  FMN1        0.0295
     16  C9A       27.8480   36.9840   21.6120 C.3    1  FMN1        0.0604
     17  N10       28.1780   36.5770   20.3280 N.pl3  1  FMN1       -0.2823
     18  C10       28.0880   35.2420   19.9830 C.3    1  FMN1        0.1289
     19  C1'       28.5400   37.5840   19.2780 C.3    1  FMN1        0.1471
     20  C2'       29.7690   38.3685   19.7066 C.3    1  FMN1        0.1631
     21  O2'       30.0804   39.3142   18.7194 O.3    1  FMN1       -0.1780
     22  C3'       30.9662   37.4492   19.8804 C.3    1  FMN1        0.1752
     23  O3'       32.0689   38.2127   20.2906 O.3    1  FMN1       -0.1769
     24  C4'       31.3355   36.7213   18.5987 C.3    1  FMN1        0.1715
     25  O4'       32.4429   35.8793   18.8503 O.3    1  FMN1       -0.1772
     26  C5'       31.6918   37.7298   17.5096 C.3    1  FMN1        0.2000
     27  O5'       30.5849   38.5765   17.2800 O.3    1  FMN1       -0.3518
     28  P         30.6620   39.7326   16.1683 P.3    1  FMN1        0.0600
     29  O1P       30.9084   39.1987   14.7800 O.3    1  FMN1       -0.6341
     30  O2P       31.7921   40.6566   16.5373 O.3    1  FMN1       -0.6341
     31  O3P       29.3375   40.4439   16.1253 O.3    1  FMN1       -0.6341
@<TRIPOS>BOND
     1    1    2 am
     2    1   18 1
     3    2    3 2
     4    2    4 am
     5    4    5 am
     6    5    6 2
     7    5    7 1
     8    7    8 ar
     9    7   18 ar
    10    8    9 ar
    11    9   10 ar
    12    9   16 ar
    13   10   11 ar
    14   11   12 1
    15   11   13 ar
    16   13   14 1
    17   13   15 ar
    18   15   16 ar
    19   16   17 ar
    20   17   18 ar
    21   17   19 1
    22   19   20 1
    23   20   21 1
    24   20   22 1
    25   22   23 1
    26   22   24 1
    27   24   25 1
    28   24   26 1
    29   26   27 1
    30   27   28 1
    31   28   29 1
    32   28   30 1
    33   28   31 1
@<TRIPOS>MOLECULE
3F2T
31 33 0 0 0
SMALL
GASTEIGER
 
@<TRIPOS>ATOM
      1  N1        28.4270   34.8300   18.7100 N.am   1  FMN1       -0.0958
      2  C2        28.3290   33.4990   18.3670 C.2    1  FMN1        0.3101
      3  O2        28.6290   33.1310   17.2350 O.2    1  FMN1       -0.2534
      4  N3        27.8930   32.5720   19.2860 N.am   1  FMN1       -0.0727
      5  C4        27.5600   32.9670   20.5670 C.2    1  FMN1        0.2726
      6  O4        27.1880   32.1300   21.3920 O.2    1  FMN1       -0.2695
      7  C4A       27.6550   34.3080   20.9220 C.3    1  FMN1        0.1631
      8  N5        27.3220   34.7100   22.2000 N.pl3  1  FMN1       -0.2381
      9  C5A       27.4190   36.0430   22.5510 C.3    1  FMN1        0.0859
     10  C6        27.0820   36.4480   23.8430 C.3    1  FMN1        0.0336
     11  C7        27.1710   37.7870   24.2050 C.3    1  FMN1       -0.0459
     12  C7M       26.7980   38.1850   25.5980 C.3    1  FMN1        0.0446
     13  C8        27.6070   38.7350   23.2670 C.3    1  FMN1       -0.0462
     14  C8M       27.7260   40.1920   23.6210 C.3    1  FMN1        0.0446
     15  C9        27.9410   38.3280   21.9780 C.3    1  FMN1        0.0295
     16  C9A       27.8480   36.9840   21.6120 C.3    1  FMN1        0.0604
     17  N10       28.1780   36.5770   20.3280 N.pl3  1  FMN1       -0.2823
     18  C10       28.0880   35.2420   19.9830 C.3    1  FMN1        0.1289
     19  C1'       28.5400   37.5840   19.2780 C.3    1  FMN1        0.1471
     20  C2'       29.7690   38.3685   19.7066 C.3    1  FMN1        0.1631
     21  O2'       30.0804   39.3142   18.7194 O.3    1  FMN1       -0.1780
     22  C3'       30.9662   37.4492   19.8804 C.3    1  FMN1        0.1752
     23  O3'       30.6606   36.4848   20.8519 O.3    1  FMN1       -0.1769
     24  C4'       32.2164   38.1935   20.3184 C.3    1  FMN1        0.1715
     25  O4'       33.2817   37.2721   20.4403 O.3    1  FMN1       -0.1772
     26  C5'       31.9724   38.8798   21.6599 C.3    1  FMN1        0.2000
     27  O5'       30.8950   39.7838   21.5304 O.3    1  FMN1       -0.3518
     28  P         30.9673   40.9890   20.4719 P.3    1  FMN1        0.0600
     29  O1P       29.7361   41.8592   20.4858 O.3    1  FMN1       -0.6341
     30  O2P       31.1203   40.3918   19.0983 O.3    1  FMN1       -0.6341
     31  O3P       32.1244   41.8776   20.8372 O.3    1  FMN1       -0.6341
@<TRIPOS>BOND
     1    1    2 am
     2    1   18 1
     3    2    3 2
     4    2    4 am
     5    4    5 am
     6    5    6 2
     7    5    7 1
     8    7    8 ar
     9    7   18 ar
    10    8    9 ar
    11    9   10 ar
    12    9   16 ar
    13   10   11 ar
    14   11   12 1
    15   11   13 ar
    16   13   14 1
    17   13   15 ar
    18   15   16 ar
    19   16   17 ar
    20   17   18 ar
    21   17   19 1
    22   19   20 1
    23   20   21 1
    24   20   22 1
    25   22   23 1
    26   22   24 1
    27   24   25 1
    28   24   26 1
    29   26   27 1
    30   27   28 1
    31   28   29 1
    32   28   30 1
    33   28   31 1
@<TRIPOS>MOLECULE
3F2T
31 33 0 0 0
SMALL
GASTEIGER
 
@<TRIPOS>ATOM
      1  N1        28.4270   34.8300   18.7100 N.am   1  FMN1       -0.0958
      2  C2        28.3290   33.4990   18.3670 C.2    1  FMN1        0.3101
      3  O2        28.6290   33.1310   17.2350 O.2    1  FMN1       -0.2534
      4  N3        27.8930   32.5720   19.2860 N.am   1  FMN1       -0.0727
      5  C4        27.5600   32.9670   20.5670 C.2    1  FMN1        0.2726
      6  O4        27.1880   32.1300   21.3920 O.2    1  FMN1       -0.2695
      7  C4A       27.6550   34.3080   20.9220 C.3    1  FMN1        0.1631
      8  N5        27.3220   34.7100   22.2000 N.pl3  1  FMN1       -0.2381
      9  C5A       27.4190   36.0430   22.5510 C.3    1  FMN1        0.0859
     10  C6        27.0820   36.4480   23.8430 C.3    1  FMN1        0.0336
     11  C7        27.1710   37.7870   24.2050 C.3    1  FMN1       -0.0459
     12  C7M       26.7980   38.1850   25.5980 C.3    1  FMN1        0.0446
     13  C8        27.6070   38.7350   23.2670 C.3    1  FMN1       -0.0462
     14  C8M       27.7260   40.1920   23.6210 C.3    1  FMN1        0.0446
     15  C9        27.9410   38.3280   21.9780 C.3    1  FMN1        0.0295
     16  C9A       27.8480   36.9840   21.6120 C.3    1  FMN1        0.0604
     17  N10       28.1780   36.5770   20.3280 N.pl3  1  FMN1       -0.2823
     18  C10       28.0880   35.2420   19.9830 C.3    1  FMN1        0.1289
     19  C1'       28.5400   37.5840   19.2780 C.3    1  FMN1        0.1471
     20  C2'       27.3900   38.5543   19.0646 C.3    1  FMN1        0.1631
     21  O2'       26.2512   37.8399   18.6660 O.3    1  FMN1       -0.1780
     22  C3'       27.7249   39.5621   17.9779 C.3    1  FMN1        0.1752
     23  O3'       26.6443   40.4437   17.8280 O.3    1  FMN1       -0.1769
     24  C4'       27.9993   38.9052   16.6355 C.3    1  FMN1        0.1715
     25  O4'       28.3169   39.9065   15.6894 O.3    1  FMN1       -0.1772
     26  C5'       26.7685   38.1301   16.1722 C.3    1  FMN1        0.2000
     27  O5'       26.4502   37.1454   17.1335 O.3    1  FMN1       -0.3518
     28  P         25.2037   36.1593   16.9055 P.3    1  FMN1        0.0600
     29  O1P       23.8933   36.8908   16.7610 O.3    1  FMN1       -0.6341
     30  O2P       25.1147   35.2410   18.0954 O.3    1  FMN1       -0.6341
     31  O3P       25.4182   35.4062   15.6215 O.3    1  FMN1       -0.6341
@<TRIPOS>BOND
     1    1    2 am
     2    1   18 1
     3    2    3 2
     4    2    4 am
     5    4    5 am
     6    5    6 2
     7    5    7 1
     8    7    8 ar
     9    7   18 ar
    10    8    9 ar
    11    9   10 ar
    12    9   16 ar
    13   10   11 ar
    14   11   12 1
    15   11   13 ar
    16   13   14 1
    17   13   15 ar
    18   15   16 ar
    19   16   17 ar
    20   17   18 ar
    21   17   19 1
    22   19   20 1
    23   20   21 1
    24   20   22 1
    25   22   23 1
    26   22   24 1
    27   24   25 1
    28   24   26 1
    29   26   27 1
    30   27   28 1
    31   28   29 1
    32   28   30 1
    33   28   31 1
@<TRIPOS>MOLECULE
3F2T
31 33 0 0 0
SMALL
GASTEIGER
 
@<TRIPOS>ATOM
      1  N1        28.4270   34.8300   18.7100 N.am   1  FMN1       -0.0958
      2  C2        28.3290   33.4990   18.3670 C.2    1  FMN1        0.3101
      3  O2        28.6290   33.1310   17.2350 O.2    1  FMN1       -0.2534
      4  N3        27.8930   32.5720   19.2860 N.am   1  FMN1       -0.0727
      5  C4        27.5600   32.9670   20.5670 C.2    1  FMN1        0.2726
      6  O4        27.1880   32.1300   21.3920 O.2    1  FMN1       -0.2695
      7  C4A       27.6550   34.3080   20.9220 C.3    1  FMN1        0.1631
      8  N5        27.3220   34.7100   22.2000 N.pl3  1  FMN1       -0.2381
      9  C5A       27.4190   36.0430   22.5510 C.3    1  FMN1        0.0859
     10  C6        27.0820   36.4480   23.8430 C.3    1  FMN1        0.0336
     11  C7        27.1710   37.7870   24.2050 C.3    1  FMN1       -0.0459
     12  C7M       26.7980   38.1850   25.5980 C.3    1  FMN1        0.0446
     13  C8        27.6070   38.7350   23.2670 C.3    1  FMN1       -0.0462
     14  C8M       27.7260   40.1920   23.6210 C.3    1  FMN1        0.0446
     15  C9        27.9410   38.3280   21.9780 C.3    1  FMN1        0.0295
     16  C9A       27.8480   36.9840   21.6120 C.3    1  FMN1        0.0604
     17  N10       28.1780   36.5770   20.3280 N.pl3  1  FMN1       -0.2823
     18  C10       28.0880   35.2420   19.9830 C.3    1  FMN1        0.1289
     19  C1'       28.5400   37.5840   19.2780 C.3    1  FMN1        0.1471
     20  C2'       27.3900   38.5543   19.0646 C.3    1  FMN1        0.1631
     21  O2'       26.2512   37.8399   18.6660 O.3    1  FMN1       -0.1780
     22  C3'       27.7249   39.5621   17.9779 C.3    1  FMN1        0.1752
     23  O3'       26.6443   40.4437   17.8280 O.3    1  FMN1       -0.1769
     24  C4'       27.9993   38.9052   16.6355 C.3    1  FMN1        0.1715
     25  O4'       28.3169   39.9065   15.6894 O.3    1  FMN1       -0.1772
     26  C5'       26.7685   38.1301   16.1722 C.3    1  FMN1        0.2000
     27  O5'       27.0469   37.5136   14.9324 O.3    1  FMN1       -0.3518
     28  P         28.2328   36.4383   14.8069 P.3    1  FMN1        0.0600
     29  O1P       29.5794   37.0001   15.1866 O.3    1  FMN1       -0.6341
     30  O2P       28.2897   35.9750   13.3755 O.3    1  FMN1       -0.6341
     31  O3P       27.9559   35.3077   15.7594 O.3    1  FMN1       -0.6341
@<TRIPOS>BOND
     1    1    2 am
     2    1   18 1
     3    2    3 2
     4    2    4 am
     5    4    5 am
     6    5    6 2
     7    5    7 1
     8    7    8 ar
     9    7   18 ar
    10    8    9 ar
    11    9   10 ar
    12    9   16 ar
    13   10   11 ar
    14   11   12 1
    15   11   13 ar
    16   13   14 1
    17   13   15 ar
    18   15   16 ar
    19   16   17 ar
    20   17   18 ar
    21   17   19 1
    22   19   20 1
    23   20   21 1
    24   20   22 1
    25   22   23 1
    26   22   24 1
    27   24   25 1
    28   24   26 1
    29   26   27 1
    30   27   28 1
    31   28   29 1
    32   28   30 1
    33   28   31 1
@<TRIPOS>MOLECULE
3F2T
31 33 0 0 0
SMALL
GASTEIGER
 
@<TRIPOS>ATOM
      1  N1        28.4270   34.8300   18.7100 N.am   1  FMN1       -0.0958
      2  C2        28.3290   33.4990   18.3670 C.2    1  FMN1        0.3101
      3  O2        28.6290   33.1310   17.2350 O.2    1  FMN1       -0.2534
      4  N3        27.8930   32.5720   19.2860 N.am   1  FMN1       -0.0727
      5  C4        27.5600   32.9670   20.5670 C.2    1  FMN1        0.2726
      6  O4        27.1880   32.1300   21.3920 O.2    1  FMN1       -0.2695
      7  C4A       27.6550   34.3080   20.9220 C.3    1  FMN1        0.1631
      8  N5        27.3220   34.7100   22.2000 N.pl3  1  FMN1       -0.2381
      9  C5A       27.4190   36.0430   22.5510 C.3    1  FMN1        0.0859
     10  C6        27.0820   36.4480   23.8430 C.3    1  FMN1        0.0336
     11  C7        27.1710   37.7870   24.2050 C.3    1  FMN1       -0.0459
     12  C7M       26.7980   38.1850   25.5980 C.3    1  FMN1        0.0446
     13  C8        27.6070   38.7350   23.2670 C.3    1  FMN1       -0.0462
     14  C8M       27.7260   40.1920   23.6210 C.3    1  FMN1        0.0446
     15  C9        27.9410   38.3280   21.9780 C.3    1  FMN1        0.0295
     16  C9A       27.8480   36.9840   21.6120 C.3    1  FMN1        0.0604
     17  N10       28.1780   36.5770   20.3280 N.pl3  1  FMN1       -0.2823
     18  C10       28.0880   35.2420   19.9830 C.3    1  FMN1        0.1289
     19  C1'       28.5400   37.5840   19.2780 C.3    1  FMN1        0.1471
     20  C2'       27.5742   37.4910   18.1083 C.3    1  FMN1        0.1631
     21  O2'       27.9398   38.4287   17.1321 O.3    1  FMN1       -0.1780
     22  C3'       26.1532   37.7947   18.5524 C.3    1  FMN1        0.1752
     23  O3'       25.7815   36.8753   19.5443 O.3    1  FMN1       -0.1769
     24  C4'       25.1523   37.7033   17.4129 C.3    1  FMN1        0.1715
     25  O4'       25.5180   38.6239   16.4041 O.3    1  FMN1       -0.1772
     26  C5'       23.7502   38.0270   17.9222 C.3    1  FMN1        0.2000
     27  O5'       22.8318   37.9214   16.8544 O.3    1  FMN1       -0.3518
     28  P         21.2725   38.2240   17.0897 P.3    1  FMN1        0.0600
     29  O1P       21.0104   39.6336   17.5560 O.3    1  FMN1       -0.6341
     30  O2P       20.7671   37.2676   18.1371 O.3    1  FMN1       -0.6341
     31  O3P       20.5514   38.0647   15.7795 O.3    1  FMN1       -0.6341
@<TRIPOS>BOND
     1    1    2 am
     2    1   18 1
     3    2    3 2
     4    2    4 am
     5    4    5 am
     6    5    6 2
     7    5    7 1
     8    7    8 ar
     9    7   18 ar
    10    8    9 ar
    11    9   10 ar
    12    9   16 ar
    13   10   11 ar
    14   11   12 1
    15   11   13 ar
    16   13   14 1
    17   13   15 ar
    18   15   16 ar
    19   16   17 ar
    20   17   18 ar
    21   17   19 1
    22   19   20 1
    23   20   21 1
    24   20   22 1
    25   22   23 1
    26   22   24 1
    27   24   25 1
    28   24   26 1
    29   26   27 1
    30   27   28 1
    31   28   29 1
    32   28   30 1
    33   28   31 1
@<TRIPOS>MOLECULE
3F2T
31 33 0 0 0
SMALL
GASTEIGER
 
@<TRIPOS>ATOM
      1  N1        28.4270   34.8300   18.7100 N.am   1  FMN1       -0.0958
      2  C2        28.3290   33.4990   18.3670 C.2    1  FMN1        0.3101
      3  O2        28.6290   33.1310   17.2350 O.2    1  FMN1       -0.2534
      4  N3        27.8930   32.5720   19.2860 N.am   1  FMN1       -0.0727
      5  C4        27.5600   32.9670   20.5670 C.2    1  FMN1        0.2726
      6  O4        27.1880   32.1300   21.3920 O.2    1  FMN1       -0.2695
      7  C4A       27.6550   34.3080   20.9220 C.3    1  FMN1        0.1631
      8  N5        27.3220   34.7100   22.2000 N.pl3  1  FMN1       -0.2381
      9  C5A       27.4190   36.0430   22.5510 C.3    1  FMN1        0.0859
     10  C6        27.0820   36.4480   23.8430 C.3    1  FMN1        0.0336
     11  C7        27.1710   37.7870   24.2050 C.3    1  FMN1       -0.0459
     12  C7M       26.7980   38.1850   25.5980 C.3    1  FMN1        0.0446
     13  C8        27.6070   38.7350   23.2670 C.3    1  FMN1       -0.0462
     14  C8M       27.7260   40.1920   23.6210 C.3    1  FMN1        0.0446
     15  C9        27.9410   38.3280   21.9780 C.3    1  FMN1        0.0295
     16  C9A       27.8480   36.9840   21.6120 C.3    1  FMN1        0.0604
     17  N10       28.1780   36.5770   20.3280 N.pl3  1  FMN1       -0.2823
     18  C10       28.0880   35.2420   19.9830 C.3    1  FMN1        0.1289
     19  C1'       28.5400   37.5840   19.2780 C.3    1  FMN1        0.1471
     20  C2'       27.5742   37.4910   18.1083 C.3    1  FMN1        0.1631
     21  O2'       27.9398   38.4287   17.1321 O.3    1  FMN1       -0.1780
     22  C3'       26.1532   37.7947   18.5524 C.3    1  FMN1        0.1752
     23  O3'       26.1070   39.0997   19.0643 O.3    1  FMN1       -0.1769
     24  C4'       25.6592   36.8394   19.6258 C.3    1  FMN1        0.1715
     25  O4'       25.7040   35.5189   19.1228 O.3    1  FMN1       -0.1772
     26  C5'       24.2275   37.1925   20.0202 C.3    1  FMN1        0.2000
     27  O5'       24.1922   38.5190   20.5038 O.3    1  FMN1       -0.3518
     28  P         22.8118   39.1631   21.0117 P.3    1  FMN1        0.0600
     29  O1P       22.9634   40.5898   21.4753 O.3    1  FMN1       -0.6341
     30  O2P       22.3080   38.3331   22.1624 O.3    1  FMN1       -0.6341
     31  O3P       21.8432   39.1867   19.8613 O.3    1  FMN1       -0.6341
@<TRIPOS>BOND
     1    1    2 am
     2    1   18 1
     3    2    3 2
     4    2    4 am
     5    4    5 am
     6    5    6 2
     7    5    7 1
     8    7    8 ar
     9    7   18 ar
    10    8    9 ar
    11    9   10 ar
    12    9   16 ar
    13   10   11 ar
    14   11   12 1
    15   11   13 ar
    16   13   14 1
    17   13   15 ar
    18   15   16 ar
    19   16   17 ar
    20   17   18 ar
    21   17   19 1
    22   19   20 1
    23   20   21 1
    24   20   22 1
    25   22   23 1
    26   22   24 1
    27   24   25 1
    28   24   26 1
    29   26   27 1
    30   27   28 1
    31   28   29 1
    32   28   30 1
    33   28   31 1
@<TRIPOS>MOLECULE
3F2T
31 33 0 0 0
SMALL
GASTEIGER
 
@<TRIPOS>ATOM
      1  N1        28.4270   34.8300   18.7100 N.am   1  FMN1       -0.0958
      2  C2        28.3290   33.4990   18.3670 C.2    1  FMN1        0.3101
      3  O2        28.6290   33.1310   17.2350 O.2    1  FMN1       -0.2534
      4  N3        27.8930   32.5720   19.2860 N.am   1  FMN1       -0.0727
      5  C4        27.5600   32.9670   20.5670 C.2    1  FMN1        0.2726
      6  O4        27.1880   32.1300   21.3920 O.2    1  FMN1       -0.2695
      7  C4A       27.6550   34.3080   20.9220 C.3    1  FMN1        0.1631
      8  N5        27.3220   34.7100   22.2000 N.pl3  1  FMN1       -0.2381
      9  C5A       27.4190   36.0430   22.5510 C.3    1  FMN1        0.0859
     10  C6        27.0820   36.4480   23.8430 C.3    1  FMN1        0.0336
     11  C7        27.1710   37.7870   24.2050 C.3    1  FMN1       -0.0459
     12  C7M       26.7980   38.1850   25.5980 C.3    1  FMN1        0.0446
     13  C8        27.6070   38.7350   23.2670 C.3    1  FMN1       -0.0462
     14  C8M       27.7260   40.1920   23.6210 C.3    1  FMN1        0.0446
     15  C9        27.9410   38.3280   21.9780 C.3    1  FMN1        0.0295
     16  C9A       27.8480   36.9840   21.6120 C.3    1  FMN1        0.0604
     17  N10       28.1780   36.5770   20.3280 N.pl3  1  FMN1       -0.2823
     18  C10       28.0880   35.2420   19.9830 C.3    1  FMN1        0.1289
     19  C1'       28.5400   37.5840   19.2780 C.3    1  FMN1        0.1471
     20  C2'       29.9493   37.3276   18.7705 C.3    1  FMN1        0.1631
     21  O2'       30.8489   37.4140   19.8426 O.3    1  FMN1       -0.1780
     22  C3'       30.3476   38.3606   17.7298 C.3    1  FMN1        0.1752
     23  O3'       29.4432   38.2986   16.6596 O.3    1  FMN1       -0.1769
     24  C4'       31.7493   38.1348   17.1884 C.3    1  FMN1        0.1715
     25  O4'       32.6710   38.1918   18.2589 O.3    1  FMN1       -0.1772
     26  C5'       32.0899   39.2077   16.1573 C.3    1  FMN1        0.2000
     27  O5'       32.0402   40.4774   16.7739 O.3    1  FMN1       -0.3518
     28  P         33.0121   40.8224   18.0047 P.3    1  FMN1        0.0600
     29  O1P       32.8064   42.2150   18.5445 O.3    1  FMN1       -0.6341
     30  O2P       34.4332   40.6967   17.5233 O.3    1  FMN1       -0.6341
     31  O3P       32.7088   39.8758   19.1334 O.3    1  FMN1       -0.6341
@<TRIPOS>BOND
     1    1    2 am
     2    1   18 1
     3    2    3 2
     4    2    4 am
     5    4    5 am
     6    5    6 2
     7    5    7 1
     8    7    8 ar
     9    7   18 ar
    10    8    9 ar
    11    9   10 ar
    12    9   16 ar
    13   10   11 ar
    14   11   12 1
    15   11   13 ar
    16   13   14 1
    17   13   15 ar
    18   15   16 ar
    19   16   17 ar
    20   17   18 ar
    21   17   19 1
    22   19   20 1
    23   20   21 1
    24   20   22 1
    25   22   23 1
    26   22   24 1
    27   24   25 1
    28   24   26 1
    29   26   27 1
    30   27   28 1
    31   28   29 1
    32   28   30 1
    33   28   31 1
@<TRIPOS>MOLECULE
3F2T
31 33 0 0 0
SMALL
GASTEIGER
 
@<TRIPOS>ATOM
      1  N1        28.4270   34.8300   18.7100 N.am   1  FMN1       -0.0958
      2  C2        28.3290   33.4990   18.3670 C.2    1  FMN1        0.3101
      3  O2        28.6290   33.1310   17.2350 O.2    1  FMN1       -0.2534
      4  N3        27.8930   32.5720   19.2860 N.am   1  FMN1       -0.0727
      5  C4        27.5600   32.9670   20.5670 C.2    1  FMN1        0.2726
      6  O4        27.1880   32.1300   21.3920 O.2    1  FMN1       -0.2695
      7  C4A       27.6550   34.3080   20.9220 C.3    1  FMN1        0.1631
      8  N5        27.3220   34.7100   22.2000 N.pl3  1  FMN1       -0.2381
      9  C5A       27.4190   36.0430   22.5510 C.3    1  FMN1        0.0859
     10  C6        27.0820   36.4480   23.8430 C.3    1  FMN1        0.0336
     11  C7        27.1710   37.7870   24.2050 C.3    1  FMN1       -0.0459
     12  C7M       26.7980   38.1850   25.5980 C.3    1  FMN1        0.0446
     13  C8        27.6070   38.7350   23.2670 C.3    1  FMN1       -0.0462
     14  C8M       27.7260   40.1920   23.6210 C.3    1  FMN1        0.0446
     15  C9        27.9410   38.3280   21.9780 C.3    1  FMN1        0.0295
     16  C9A       27.8480   36.9840   21.6120 C.3    1  FMN1        0.0604
     17  N10       28.1780   36.5770   20.3280 N.pl3  1  FMN1       -0.2823
     18  C10       28.0880   35.2420   19.9830 C.3    1  FMN1        0.1289
     19  C1'       28.5400   37.5840   19.2780 C.3    1  FMN1        0.1471
     20  C2'       27.2964   38.0235   18.5232 C.3    1  FMN1        0.1631
     21  O2'       26.3962   38.6146   19.4211 O.3    1  FMN1       -0.1780
     22  C3'       26.6087   36.8353   17.8719 C.3    1  FMN1        0.1752
     23  O3'       27.5057   36.2220   16.9851 O.3    1  FMN1       -0.1769
     24  C4'       25.3632   37.2328   17.0976 C.3    1  FMN1        0.1715
     25  O4'       24.7783   36.0728   16.5399 O.3    1  FMN1       -0.1772
     26  C5'       25.7302   38.2110   15.9847 C.3    1  FMN1        0.2000
     27  O5'       26.6365   37.5881   15.0985 O.3    1  FMN1       -0.3518
     28  P         26.2121   36.2603   14.3016 P.3    1  FMN1        0.0600
     29  O1P       25.0244   36.4711   13.3971 O.3    1  FMN1       -0.6341
     30  O2P       25.8650   35.2020   15.3147 O.3    1  FMN1       -0.6341
     31  O3P       27.3563   35.8469   13.4174 O.3    1  FMN1       -0.6341
@<TRIPOS>BOND
     1    1    2 am
     2    1   18 1
     3    2    3 2
     4    2    4 am
     5    4    5 am
     6    5    6 2
     7    5    7 1
     8    7    8 ar
     9    7   18 ar
    10    8    9 ar
    11    9   10 ar
    12    9   16 ar
    13   10   11 ar
    14   11   12 1
    15   11   13 ar
    16   13   14 1
    17   13   15 ar
    18   15   16 ar
    19   16   17 ar
    20   17   18 ar
    21   17   19 1
    22   19   20 1
    23   20   21 1
    24   20   22 1
    25   22   23 1
    26   22   24 1
    27   24   25 1
    28   24   26 1
    29   26   27 1
    30   27   28 1
    31   28   29 1
    32   28   30 1
    33   28   31 1
@<TRIPOS>MOLECULE
3F2T
31 33 0 0 0
SMALL
GASTEIGER
 
@<TRIPOS>ATOM
      1  N1        28.4270   34.8300   18.7100 N.am   1  FMN1       -0.0958
      2  C2        28.3290   33.4990   18.3670 C.2    1  FMN1        0.3101
      3  O2        28.6290   33.1310   17.2350 O.2    1  FMN1       -0.2534
      4  N3        27.8930   32.5720   19.2860 N.am   1  FMN1       -0.0727
      5  C4        27.5600   32.9670   20.5670 C.2    1  FMN1        0.2726
      6  O4        27.1880   32.1300   21.3920 O.2    1  FMN1       -0.2695
      7  C4A       27.6550   34.3080   20.9220 C.3    1  FMN1        0.1631
      8  N5        27.3220   34.7100   22.2000 N.pl3  1  FMN1       -0.2381
      9  C5A       27.4190   36.0430   22.5510 C.3    1  FMN1        0.0859
     10  C6        27.0820   36.4480   23.8430 C.3    1  FMN1        0.0336
     11  C7        27.1710   37.7870   24.2050 C.3    1  FMN1       -0.0459
     12  C7M       26.7980   38.1850   25.5980 C.3    1  FMN1        0.0446
     13  C8        27.6070   38.7350   23.2670 C.3    1  FMN1       -0.0462
     14  C8M       27.7260   40.1920   23.6210 C.3    1  FMN1        0.0446
     15  C9        27.9410   38.3280   21.9780 C.3    1  FMN1        0.0295
     16  C9A       27.8480   36.9840   21.6120 C.3    1  FMN1        0.0604
     17  N10       28.1780   36.5770   20.3280 N.pl3  1  FMN1       -0.2823
     18  C10       28.0880   35.2420   19.9830 C.3    1  FMN1        0.1289
     19  C1'       28.5400   37.5840   19.2780 C.3    1  FMN1        0.1471
     20  C2'       30.0388   37.8349   19.2878 C.3    1  FMN1        0.1631
     21  O2'       30.4194   38.3078   20.5517 O.3    1  FMN1       -0.1780
     22  C3'       30.4209   38.8799   18.2531 C.3    1  FMN1        0.1752
     23  O3'       29.7670   40.0822   18.5596 O.3    1  FMN1       -0.1769
     24  C4'       30.0385   38.4712   16.8405 C.3    1  FMN1        0.1715
     25  O4'       28.6369   38.2984   16.7748 O.3    1  FMN1       -0.1772
     26  C5'       30.7368   37.1660   16.4674 C.3    1  FMN1        0.2000
     27  O5'       30.3829   36.8105   15.1471 O.3    1  FMN1       -0.3518
     28  P         30.7351   37.7847   13.9203 P.3    1  FMN1        0.0600
     29  O1P       32.2155   38.0255   13.7662 O.3    1  FMN1       -0.6341
     30  O2P       30.0547   39.1052   14.1661 O.3    1  FMN1       -0.6341
     31  O3P       30.2714   37.1353   12.6454 O.3    1  FMN1       -0.6341
@<TRIPOS>BOND
     1    1    2 am
     2    1   18 1
     3    2    3 2
     4    2    4 am
     5    4    5 am
     6    5    6 2
     7    5    7 1
     8    7    8 ar
     9    7   18 ar
    10    8    9 ar
    11    9   10 ar
    12    9   16 ar
    13   10   11 ar
    14   11   12 1
    15   11   13 ar
    16   13   14 1
    17   13   15 ar
    18   15   16 ar
    19   16   17 ar
    20   17   18 ar
    21   17   19 1
    22   19   20 1
    23   20   21 1
    24   20   22 1
    25   22   23 1
    26   22   24 1
    27   24   25 1
    28   24   26 1
    29   26   27 1
    30   27   28 1
    31   28   29 1
    32   28   30 1
    33   28   31 1
@<TRIPOS>MOLECULE
3F2T
31 33 0 0 0
SMALL
GASTEIGER
 
@<TRIPOS>ATOM
      1  N1        28.4270   34.8300   18.7100 N.am   1  FMN1       -0.0958
      2  C2        28.3290   33.4990   18.3670 C.2    1  FMN1        0.3101
      3  O2        28.6290   33.1310   17.2350 O.2    1  FMN1       -0.2534
      4  N3        27.8930   32.5720   19.2860 N.am   1  FMN1       -0.0727
      5  C4        27.5600   32.9670   20.5670 C.2    1  FMN1        0.2726
      6  O4        27.1880   32.1300   21.3920 O.2    1  FMN1       -0.2695
      7  C4A       27.6550   34.3080   20.9220 C.3    1  FMN1        0.1631
      8  N5        27.3220   34.7100   22.2000 N.pl3  1  FMN1       -0.2381
      9  C5A       27.4190   36.0430   22.5510 C.3    1  FMN1        0.0859
     10  C6        27.0820   36.4480   23.8430 C.3    1  FMN1        0.0336
     11  C7        27.1710   37.7870   24.2050 C.3    1  FMN1       -0.0459
     12  C7M       26.7980   38.1850   25.5980 C.3    1  FMN1        0.0446
     13  C8        27.6070   38.7350   23.2670 C.3    1  FMN1       -0.0462
     14  C8M       27.7260   40.1920   23.6210 C.3    1  FMN1        0.0446
     15  C9        27.9410   38.3280   21.9780 C.3    1  FMN1        0.0295
     16  C9A       27.8480   36.9840   21.6120 C.3    1  FMN1        0.0604
     17  N10       28.1780   36.5770   20.3280 N.pl3  1  FMN1       -0.2823
     18  C10       28.0880   35.2420   19.9830 C.3    1  FMN1        0.1289
     19  C1'       28.5400   37.5840   19.2780 C.3    1  FMN1        0.1471
     20  C2'       30.0388   37.8349   19.2878 C.3    1  FMN1        0.1631
     21  O2'       30.4194   38.3078   20.5517 O.3    1  FMN1       -0.1780
     22  C3'       30.4209   38.8799   18.2531 C.3    1  FMN1        0.1752
     23  O3'       30.0274   38.4278   16.9850 O.3    1  FMN1       -0.1769
     24  C4'       31.9151   39.1543   18.2233 C.3    1  FMN1        0.1715
     25  O4'       32.5960   37.9597   17.8946 O.3    1  FMN1       -0.1772
     26  C5'       32.3814   39.6547   19.5879 C.3    1  FMN1        0.2000
     27  O5'       31.6815   40.8376   19.9133 O.3    1  FMN1       -0.3518
     28  P         31.9776   41.6045   21.2926 P.3    1  FMN1        0.0600
     29  O1P       31.7268   40.7481   22.5078 O.3    1  FMN1       -0.6341
     30  O2P       31.0761   42.8087   21.3569 O.3    1  FMN1       -0.6341
     31  O3P       33.4331   41.9819   21.3271 O.3    1  FMN1       -0.6341
@<TRIPOS>BOND
     1    1    2 am
     2    1   18 1
     3    2    3 2
     4    2    4 am
     5    4    5 am
     6    5    6 2
     7    5    7 1
     8    7    8 ar
     9    7   18 ar
    10    8    9 ar
    11    9   10 ar
    12    9   16 ar
    13   10   11 ar
    14   11   12 1
    15   11   13 ar
    16   13   14 1
    17   13   15 ar
    18   15   16 ar
    19   16   17 ar
    20   17   18 ar
    21   17   19 1
    22   19   20 1
    23   20   21 1
    24   20   22 1
    25   22   23 1
    26   22   24 1
    27   24   25 1
    28   24   26 1
    29   26   27 1
    30   27   28 1
    31   28   29 1
    32   28   30 1
    33   28   31 1
@<TRIPOS>MOLECULE
3F2T
31 33 0 0 0
SMALL
GASTEIGER
 
@<TRIPOS>ATOM
      1  N1        28.4270   34.8300   18.7100 N.am   1  FMN1       -0.0958
      2  C2        28.3290   33.4990   18.3670 C.2    1  FMN1        0.3101
      3  O2        28.6290   33.1310   17.2350 O.2    1  FMN1       -0.2534
      4  N3        27.8930   32.5720   19.2860 N.am   1  FMN1       -0.0727
      5  C4        27.5600   32.9670   20.5670 C.2    1  FMN1        0.2726
      6  O4        27.1880   32.1300   21.3920 O.2    1  FMN1       -0.2695
      7  C4A       27.6550   34.3080   20.9220 C.3    1  FMN1        0.1631
      8  N5        27.3220   34.7100   22.2000 N.pl3  1  FMN1       -0.2381
      9  C5A       27.4190   36.0430   22.5510 C.3    1  FMN1        0.0859
     10  C6        27.0820   36.4480   23.8430 C.3    1  FMN1        0.0336
     11  C7        27.1710   37.7870   24.2050 C.3    1  FMN1       -0.0459
     12  C7M       26.7980   38.1850   25.5980 C.3    1  FMN1        0.0446
     13  C8        27.6070   38.7350   23.2670 C.3    1  FMN1       -0.0462
     14  C8M       27.7260   40.1920   23.6210 C.3    1  FMN1        0.0446
     15  C9        27.9410   38.3280   21.9780 C.3    1  FMN1        0.0295
     16  C9A       27.8480   36.9840   21.6120 C.3    1  FMN1        0.0604
     17  N10       28.1780   36.5770   20.3280 N.pl3  1  FMN1       -0.2823
     18  C10       28.0880   35.2420   19.9830 C.3    1  FMN1        0.1289
     19  C1'       28.5400   37.5840   19.2780 C.3    1  FMN1        0.1471
     20  C2'       30.0388   37.8349   19.2878 C.3    1  FMN1        0.1631
     21  O2'       30.4194   38.3078   20.5517 O.3    1  FMN1       -0.1780
     22  C3'       30.4209   38.8799   18.2531 C.3    1  FMN1        0.1752
     23  O3'       30.0274   38.4278   16.9850 O.3    1  FMN1       -0.1769
     24  C4'       31.9151   39.1543   18.2233 C.3    1  FMN1        0.1715
     25  O4'       32.3252   39.6080   19.4979 O.3    1  FMN1       -0.1772
     26  C5'       32.2302   40.2157   17.1724 C.3    1  FMN1        0.2000
     27  O5'       31.7997   39.7591   15.9070 O.3    1  FMN1       -0.3518
     28  P         32.3880   38.3984   15.2901 P.3    1  FMN1        0.0600
     29  O1P       33.8857   38.4289   15.1190 O.3    1  FMN1       -0.6341
     30  O2P       31.7528   38.1876   13.9414 O.3    1  FMN1       -0.6341
     31  O3P       32.0880   37.2729   16.2415 O.3    1  FMN1       -0.6341
@<TRIPOS>BOND
     1    1    2 am
     2    1   18 1
     3    2    3 2
     4    2    4 am
     5    4    5 am
     6    5    6 2
     7    5    7 1
     8    7    8 ar
     9    7   18 ar
    10    8    9 ar
    11    9   10 ar
    12    9   16 ar
    13   10   11 ar
    14   11   12 1
    15   11   13 ar
    16   13   14 1
    17   13   15 ar
    18   15   16 ar
    19   16   17 ar
    20   17   18 ar
    21   17   19 1
    22   19   20 1
    23   20   21 1
    24   20   22 1
    25   22   23 1
    26   22   24 1
    27   24   25 1
    28   24   26 1
    29   26   27 1
    30   27   28 1
    31   28   29 1
    32   28   30 1
    33   28   31 1
@<TRIPOS>MOLECULE
3F2T
31 33 0 0 0
SMALL
GASTEIGER
 
@<TRIPOS>ATOM
      1  N1        28.4270   34.8300   18.7100 N.am   1  FMN1       -0.0958
      2  C2        28.3290   33.4990   18.3670 C.2    1  FMN1        0.3101
      3  O2        28.6290   33.1310   17.2350 O.2    1  FMN1       -0.2534
      4  N3        27.8930   32.5720   19.2860 N.am   1  FMN1       -0.0727
      5  C4        27.5600   32.9670   20.5670 C.2    1  FMN1        0.2726
      6  O4        27.1880   32.1300   21.3920 O.2    1  FMN1       -0.2695
      7  C4A       27.6550   34.3080   20.9220 C.3    1  FMN1        0.1631
      8  N5        27.3220   34.7100   22.2000 N.pl3  1  FMN1       -0.2381
      9  C5A       27.4190   36.0430   22.5510 C.3    1  FMN1        0.0859
     10  C6        27.0820   36.4480   23.8430 C.3    1  FMN1        0.0336
     11  C7        27.1710   37.7870   24.2050 C.3    1  FMN1       -0.0459
     12  C7M       26.7980   38.1850   25.5980 C.3    1  FMN1        0.0446
     13  C8        27.6070   38.7350   23.2670 C.3    1  FMN1       -0.0462
     14  C8M       27.7260   40.1920   23.6210 C.3    1  FMN1        0.0446
     15  C9        27.9410   38.3280   21.9780 C.3    1  FMN1        0.0295
     16  C9A       27.8480   36.9840   21.6120 C.3    1  FMN1        0.0604
     17  N10       28.1780   36.5770   20.3280 N.pl3  1  FMN1       -0.2823
     18  C10       28.0880   35.2420   19.9830 C.3    1  FMN1        0.1289
     19  C1'       28.5400   37.5840   19.2780 C.3    1  FMN1        0.1471
     20  C2'       27.2964   38.0235   18.5232 C.3    1  FMN1        0.1631
     21  O2'       27.6589   38.9516   17.5368 O.3    1  FMN1       -0.1780
     22  C3'       26.2999   38.6871   19.4589 C.3    1  FMN1        0.1752
     23  O3'       25.9436   37.7751   20.4632 O.3    1  FMN1       -0.1769
     24  C4'       25.0354   39.1341   18.7448 C.3    1  FMN1        0.1715
     25  O4'       24.1734   39.7527   19.6791 O.3    1  FMN1       -0.1772
     26  C5'       24.3369   37.9306   18.1172 C.3    1  FMN1        0.2000
     27  O5'       23.9851   37.0152   19.1336 O.3    1  FMN1       -0.3518
     28  P         22.9857   37.4527   20.3118 P.3    1  FMN1        0.0600
     29  O1P       21.6243   37.8601   19.8080 O.3    1  FMN1       -0.6341
     30  O2P       23.6024   38.6214   21.0335 O.3    1  FMN1       -0.6341
     31  O3P       22.7715   36.2731   21.2199 O.3    1  FMN1       -0.6341
@<TRIPOS>BOND
     1    1    2 am
     2    1   18 1
     3    2    3 2
     4    2    4 am
     5    4    5 am
     6    5    6 2
     7    5    7 1
     8    7    8 ar
     9    7   18 ar
    10    8    9 ar
    11    9   10 ar
    12    9   16 ar
    13   10   11 ar
    14   11   12 1
    15   11   13 ar
    16   13   14 1
    17   13   15 ar
    18   15   16 ar
    19   16   17 ar
    20   17   18 ar
    21   17   19 1
    22   19   20 1
    23   20   21 1
    24   20   22 1
    25   22   23 1
    26   22   24 1
    27   24   25 1
    28   24   26 1
    29   26   27 1
    30   27   28 1
    31   28   29 1
    32   28   30 1
    33   28   31 1
@<TRIPOS>MOLECULE
3F2T
31 33 0 0 0
SMALL
GASTEIGER
 
@<TRIPOS>ATOM
      1  N1        28.4270   34.8300   18.7100 N.am   1  FMN1       -0.0958
      2  C2        28.3290   33.4990   18.3670 C.2    1  FMN1        0.3101
      3  O2        28.6290   33.1310   17.2350 O.2    1  FMN1       -0.2534
      4  N3        27.8930   32.5720   19.2860 N.am   1  FMN1       -0.0727
      5  C4        27.5600   32.9670   20.5670 C.2    1  FMN1        0.2726
      6  O4        27.1880   32.1300   21.3920 O.2    1  FMN1       -0.2695
      7  C4A       27.6550   34.3080   20.9220 C.3    1  FMN1        0.1631
      8  N5        27.3220   34.7100   22.2000 N.pl3  1  FMN1       -0.2381
      9  C5A       27.4190   36.0430   22.5510 C.3    1  FMN1        0.0859
     10  C6        27.0820   36.4480   23.8430 C.3    1  FMN1        0.0336
     11  C7        27.1710   37.7870   24.2050 C.3    1  FMN1       -0.0459
     12  C7M       26.7980   38.1850   25.5980 C.3    1  FMN1        0.0446
     13  C8        27.6070   38.7350   23.2670 C.3    1  FMN1       -0.0462
     14  C8M       27.7260   40.1920   23.6210 C.3    1  FMN1        0.0446
     15  C9        27.9410   38.3280   21.9780 C.3    1  FMN1        0.0295
     16  C9A       27.8480   36.9840   21.6120 C.3    1  FMN1        0.0604
     17  N10       28.1780   36.5770   20.3280 N.pl3  1  FMN1       -0.2823
     18  C10       28.0880   35.2420   19.9830 C.3    1  FMN1        0.1289
     19  C1'       28.5400   37.5840   19.2780 C.3    1  FMN1        0.1471
     20  C2'       27.5742   37.4910   18.1083 C.3    1  FMN1        0.1631
     21  O2'       27.6282   36.1988   17.5668 O.3    1  FMN1       -0.1780
     22  C3'       27.9464   38.4809   17.0173 C.3    1  FMN1        0.1752
     23  O3'       27.0208   38.3702   15.9693 O.3    1  FMN1       -0.1769
     24  C4'       29.3379   38.2382   16.4574 C.3    1  FMN1        0.1715
     25  O4'       29.6101   39.2073   15.4646 O.3    1  FMN1       -0.1772
     26  C5'       29.4197   36.8404   15.8494 C.3    1  FMN1        0.2000
     27  O5'       30.7231   36.6266   15.3491 O.3    1  FMN1       -0.3518
     28  P         31.9907   36.6790   16.3334 P.3    1  FMN1        0.0600
     29  O1P       31.9293   35.6436   17.4277 O.3    1  FMN1       -0.6341
     30  O2P       32.0325   38.0454   16.9642 O.3    1  FMN1       -0.6341
     31  O3P       33.2298   36.3844   15.5335 O.3    1  FMN1       -0.6341
@<TRIPOS>BOND
     1    1    2 am
     2    1   18 1
     3    2    3 2
     4    2    4 am
     5    4    5 am
     6    5    6 2
     7    5    7 1
     8    7    8 ar
     9    7   18 ar
    10    8    9 ar
    11    9   10 ar
    12    9   16 ar
    13   10   11 ar
    14   11   12 1
    15   11   13 ar
    16   13   14 1
    17   13   15 ar
    18   15   16 ar
    19   16   17 ar
    20   17   18 ar
    21   17   19 1
    22   19   20 1
    23   20   21 1
    24   20   22 1
    25   22   23 1
    26   22   24 1
    27   24   25 1
    28   24   26 1
    29   26   27 1
    30   27   28 1
    31   28   29 1
    32   28   30 1
    33   28   31 1
@<TRIPOS>MOLECULE
3F2T
31 33 0 0 0
SMALL
GASTEIGER
 
@<TRIPOS>ATOM
      1  N1        28.4270   34.8300   18.7100 N.am   1  FMN1       -0.0958
      2  C2        28.3290   33.4990   18.3670 C.2    1  FMN1        0.3101
      3  O2        28.6290   33.1310   17.2350 O.2    1  FMN1       -0.2534
      4  N3        27.8930   32.5720   19.2860 N.am   1  FMN1       -0.0727
      5  C4        27.5600   32.9670   20.5670 C.2    1  FMN1        0.2726
      6  O4        27.1880   32.1300   21.3920 O.2    1  FMN1       -0.2695
      7  C4A       27.6550   34.3080   20.9220 C.3    1  FMN1        0.1631
      8  N5        27.3220   34.7100   22.2000 N.pl3  1  FMN1       -0.2381
      9  C5A       27.4190   36.0430   22.5510 C.3    1  FMN1        0.0859
     10  C6        27.0820   36.4480   23.8430 C.3    1  FMN1        0.0336
     11  C7        27.1710   37.7870   24.2050 C.3    1  FMN1       -0.0459
     12  C7M       26.7980   38.1850   25.5980 C.3    1  FMN1        0.0446
     13  C8        27.6070   38.7350   23.2670 C.3    1  FMN1       -0.0462
     14  C8M       27.7260   40.1920   23.6210 C.3    1  FMN1        0.0446
     15  C9        27.9410   38.3280   21.9780 C.3    1  FMN1        0.0295
     16  C9A       27.8480   36.9840   21.6120 C.3    1  FMN1        0.0604
     17  N10       28.1780   36.5770   20.3280 N.pl3  1  FMN1       -0.2823
     18  C10       28.0880   35.2420   19.9830 C.3    1  FMN1        0.1289
     19  C1'       28.5400   37.5840   19.2780 C.3    1  FMN1        0.1471
     20  C2'       27.2964   38.0235   18.5232 C.3    1  FMN1        0.1631
     21  O2'       26.3962   38.6146   19.4211 O.3    1  FMN1       -0.1780
     22  C3'       26.6087   36.8353   17.8719 C.3    1  FMN1        0.1752
     23  O3'       27.5057   36.2220   16.9851 O.3    1  FMN1       -0.1769
     24  C4'       25.3632   37.2328   17.0976 C.3    1  FMN1        0.1715
     25  O4'       25.7280   38.1311   16.0687 O.3    1  FMN1       -0.1772
     26  C5'       24.3581   37.9005   18.0325 C.3    1  FMN1        0.2000
     27  O5'       24.0153   37.0006   19.0657 O.3    1  FMN1       -0.3518
     28  P         23.3558   35.5780   18.7196 P.3    1  FMN1        0.0600
     29  O1P       22.0554   35.6998   17.9663 O.3    1  FMN1       -0.6341
     30  O2P       23.0962   34.8590   20.0167 O.3    1  FMN1       -0.6341
     31  O3P       24.2985   34.8181   17.8276 O.3    1  FMN1       -0.6341
@<TRIPOS>BOND
     1    1    2 am
     2    1   18 1
     3    2    3 2
     4    2    4 am
     5    4    5 am
     6    5    6 2
     7    5    7 1
     8    7    8 ar
     9    7   18 ar
    10    8    9 ar
    11    9   10 ar
    12    9   16 ar
    13   10   11 ar
    14   11   12 1
    15   11   13 ar
    16   13   14 1
    17   13   15 ar
    18   15   16 ar
    19   16   17 ar
    20   17   18 ar
    21   17   19 1
    22   19   20 1
    23   20   21 1
    24   20   22 1
    25   22   23 1
    26   22   24 1
    27   24   25 1
    28   24   26 1
    29   26   27 1
    30   27   28 1
    31   28   29 1
    32   28   30 1
    33   28   31 1
@<TRIPOS>MOLECULE
3F2T
31 33 0 0 0
SMALL
GASTEIGER
 
@<TRIPOS>ATOM
      1  N1        28.4270   34.8300   18.7100 N.am   1  FMN1       -0.0958
      2  C2        28.3290   33.4990   18.3670 C.2    1  FMN1        0.3101
      3  O2        28.6290   33.1310   17.2350 O.2    1  FMN1       -0.2534
      4  N3        27.8930   32.5720   19.2860 N.am   1  FMN1       -0.0727
      5  C4        27.5600   32.9670   20.5670 C.2    1  FMN1        0.2726
      6  O4        27.1880   32.1300   21.3920 O.2    1  FMN1       -0.2695
      7  C4A       27.6550   34.3080   20.9220 C.3    1  FMN1        0.1631
      8  N5        27.3220   34.7100   22.2000 N.pl3  1  FMN1       -0.2381
      9  C5A       27.4190   36.0430   22.5510 C.3    1  FMN1        0.0859
     10  C6        27.0820   36.4480   23.8430 C.3    1  FMN1        0.0336
     11  C7        27.1710   37.7870   24.2050 C.3    1  FMN1       -0.0459
     12  C7M       26.7980   38.1850   25.5980 C.3    1  FMN1        0.0446
     13  C8        27.6070   38.7350   23.2670 C.3    1  FMN1       -0.0462
     14  C8M       27.7260   40.1920   23.6210 C.3    1  FMN1        0.0446
     15  C9        27.9410   38.3280   21.9780 C.3    1  FMN1        0.0295
     16  C9A       27.8480   36.9840   21.6120 C.3    1  FMN1        0.0604
     17  N10       28.1780   36.5770   20.3280 N.pl3  1  FMN1       -0.2823
     18  C10       28.0880   35.2420   19.9830 C.3    1  FMN1        0.1289
     19  C1'       28.5400   37.5840   19.2780 C.3    1  FMN1        0.1471
     20  C2'       29.9493   37.3276   18.7705 C.3    1  FMN1        0.1631
     21  O2'       30.8489   37.4140   19.8426 O.3    1  FMN1       -0.1780
     22  C3'       30.3476   38.3606   17.7298 C.3    1  FMN1        0.1752
     23  O3'       31.6452   38.0749   17.2803 O.3    1  FMN1       -0.1769
     24  C4'       30.3295   39.7783   18.2762 C.3    1  FMN1        0.1715
     25  O4'       30.6945   40.6738   17.2450 O.3    1  FMN1       -0.1772
     26  C5'       31.3114   39.9026   19.4384 C.3    1  FMN1        0.2000
     27  O5'       30.9475   38.9910   20.4540 O.3    1  FMN1       -0.3518
     28  P         31.7954   38.9088   21.8151 P.3    1  FMN1        0.0600
     29  O1P       31.8033   40.2064   22.5828 O.3    1  FMN1       -0.6341
     30  O2P       33.2136   38.5513   21.4575 O.3    1  FMN1       -0.6341
     31  O3P       31.1600   37.8832   22.7131 O.3    1  FMN1       -0.6341
@<TRIPOS>BOND
     1    1    2 am
     2    1   18 1
     3    2    3 2
     4    2    4 am
     5    4    5 am
     6    5    6 2
     7    5    7 1
     8    7    8 ar
     9    7   18 ar
    10    8    9 ar
    11    9   10 ar
    12    9   16 ar
    13   10   11 ar
    14   11   12 1
    15   11   13 ar
    16   13   14 1
    17   13   15 ar
    18   15   16 ar
    19   16   17 ar
    20   17   18 ar
    21   17   19 1
    22   19   20 1
    23   20   21 1
    24   20   22 1
    25   22   23 1
    26   22   24 1
    27   24   25 1
    28   24   26 1
    29   26   27 1
    30   27   28 1
    31   28   29 1
    32   28   30 1
    33   28   31 1
@<TRIPOS>MOLECULE
3F2T
31 33 0 0 0
SMALL
GASTEIGER
 
@<TRIPOS>ATOM
      1  N1        28.4270   34.8300   18.7100 N.am   1  FMN1       -0.0958
      2  C2        28.3290   33.4990   18.3670 C.2    1  FMN1        0.3101
      3  O2        28.6290   33.1310   17.2350 O.2    1  FMN1       -0.2534
      4  N3        27.8930   32.5720   19.2860 N.am   1  FMN1       -0.0727
      5  C4        27.5600   32.9670   20.5670 C.2    1  FMN1        0.2726
      6  O4        27.1880   32.1300   21.3920 O.2    1  FMN1       -0.2695
      7  C4A       27.6550   34.3080   20.9220 C.3    1  FMN1        0.1631
      8  N5        27.3220   34.7100   22.2000 N.pl3  1  FMN1       -0.2381
      9  C5A       27.4190   36.0430   22.5510 C.3    1  FMN1        0.0859
     10  C6        27.0820   36.4480   23.8430 C.3    1  FMN1        0.0336
     11  C7        27.1710   37.7870   24.2050 C.3    1  FMN1       -0.0459
     12  C7M       26.7980   38.1850   25.5980 C.3    1  FMN1        0.0446
     13  C8        27.6070   38.7350   23.2670 C.3    1  FMN1       -0.0462
     14  C8M       27.7260   40.1920   23.6210 C.3    1  FMN1        0.0446
     15  C9        27.9410   38.3280   21.9780 C.3    1  FMN1        0.0295
     16  C9A       27.8480   36.9840   21.6120 C.3    1  FMN1        0.0604
     17  N10       28.1780   36.5770   20.3280 N.pl3  1  FMN1       -0.2823
     18  C10       28.0880   35.2420   19.9830 C.3    1  FMN1        0.1289
     19  C1'       28.5400   37.5840   19.2780 C.3    1  FMN1        0.1471
     20  C2'       30.0388   37.8349   19.2878 C.3    1  FMN1        0.1631
     21  O2'       30.4194   38.3078   20.5517 O.3    1  FMN1       -0.1780
     22  C3'       30.4209   38.8799   18.2531 C.3    1  FMN1        0.1752
     23  O3'       30.0274   38.4278   16.9850 O.3    1  FMN1       -0.1769
     24  C4'       31.9151   39.1543   18.2233 C.3    1  FMN1        0.1715
     25  O4'       32.5960   37.9597   17.8946 O.3    1  FMN1       -0.1772
     26  C5'       32.3814   39.6547   19.5879 C.3    1  FMN1        0.2000
     27  O5'       32.1209   38.6639   20.5602 O.3    1  FMN1       -0.3518
     28  P         32.7986   37.2129   20.4446 P.3    1  FMN1        0.0600
     29  O1P       32.3926   36.2831   21.5599 O.3    1  FMN1       -0.6341
     30  O2P       34.2928   37.3937   20.4873 O.3    1  FMN1       -0.6341
     31  O3P       32.3404   36.5717   19.1636 O.3    1  FMN1       -0.6341
@<TRIPOS>BOND
     1    1    2 am
     2    1   18 1
     3    2    3 2
     4    2    4 am
     5    4    5 am
     6    5    6 2
     7    5    7 1
     8    7    8 ar
     9    7   18 ar
    10    8    9 ar
    11    9   10 ar
    12    9   16 ar
    13   10   11 ar
    14   11   12 1
    15   11   13 ar
    16   13   14 1
    17   13   15 ar
    18   15   16 ar
    19   16   17 ar
    20   17   18 ar
    21   17   19 1
    22   19   20 1
    23   20   21 1
    24   20   22 1
    25   22   23 1
    26   22   24 1
    27   24   25 1
    28   24   26 1
    29   26   27 1
    30   27   28 1
    31   28   29 1
    32   28   30 1
    33   28   31 1
@<TRIPOS>MOLECULE
3F2T
31 33 0 0 0
SMALL
GASTEIGER
 
@<TRIPOS>ATOM
      1  N1        28.4270   34.8300   18.7100 N.am   1  FMN1       -0.0958
      2  C2        28.3290   33.4990   18.3670 C.2    1  FMN1        0.3101
      3  O2        28.6290   33.1310   17.2350 O.2    1  FMN1       -0.2534
      4  N3        27.8930   32.5720   19.2860 N.am   1  FMN1       -0.0727
      5  C4        27.5600   32.9670   20.5670 C.2    1  FMN1        0.2726
      6  O4        27.1880   32.1300   21.3920 O.2    1  FMN1       -0.2695
      7  C4A       27.6550   34.3080   20.9220 C.3    1  FMN1        0.1631
      8  N5        27.3220   34.7100   22.2000 N.pl3  1  FMN1       -0.2381
      9  C5A       27.4190   36.0430   22.5510 C.3    1  FMN1        0.0859
     10  C6        27.0820   36.4480   23.8430 C.3    1  FMN1        0.0336
     11  C7        27.1710   37.7870   24.2050 C.3    1  FMN1       -0.0459
     12  C7M       26.7980   38.1850   25.5980 C.3    1  FMN1        0.0446
     13  C8        27.6070   38.7350   23.2670 C.3    1  FMN1       -0.0462
     14  C8M       27.7260   40.1920   23.6210 C.3    1  FMN1        0.0446
     15  C9        27.9410   38.3280   21.9780 C.3    1  FMN1        0.0295
     16  C9A       27.8480   36.9840   21.6120 C.3    1  FMN1        0.0604
     17  N10       28.1780   36.5770   20.3280 N.pl3  1  FMN1       -0.2823
     18  C10       28.0880   35.2420   19.9830 C.3    1  FMN1        0.1289
     19  C1'       28.5400   37.5840   19.2780 C.3    1  FMN1        0.1471
     20  C2'       30.0388   37.8349   19.2878 C.3    1  FMN1        0.1631
     21  O2'       30.4194   38.3078   20.5517 O.3    1  FMN1       -0.1780
     22  C3'       30.4209   38.8799   18.2531 C.3    1  FMN1        0.1752
     23  O3'       29.7670   40.0822   18.5596 O.3    1  FMN1       -0.1769
     24  C4'       30.0385   38.4712   16.8405 C.3    1  FMN1        0.1715
     25  O4'       28.6369   38.2984   16.7748 O.3    1  FMN1       -0.1772
     26  C5'       30.7368   37.1660   16.4674 C.3    1  FMN1        0.2000
     27  O5'       32.1350   37.3456   16.5542 O.3    1  FMN1       -0.3518
     28  P         33.1335   36.1391   16.1999 P.3    1  FMN1        0.0600
     29  O1P       34.5857   36.5091   16.3653 O.3    1  FMN1       -0.6341
     30  O2P       32.8962   35.7461   14.7659 O.3    1  FMN1       -0.6341
     31  O3P       32.8692   35.0045   17.1511 O.3    1  FMN1       -0.6341
@<TRIPOS>BOND
     1    1    2 am
     2    1   18 1
     3    2    3 2
     4    2    4 am
     5    4    5 am
     6    5    6 2
     7    5    7 1
     8    7    8 ar
     9    7   18 ar
    10    8    9 ar
    11    9   10 ar
    12    9   16 ar
    13   10   11 ar
    14   11   12 1
    15   11   13 ar
    16   13   14 1
    17   13   15 ar
    18   15   16 ar
    19   16   17 ar
    20   17   18 ar
    21   17   19 1
    22   19   20 1
    23   20   21 1
    24   20   22 1
    25   22   23 1
    26   22   24 1
    27   24   25 1
    28   24   26 1
    29   26   27 1
    30   27   28 1
    31   28   29 1
    32   28   30 1
    33   28   31 1
@<TRIPOS>MOLECULE
3F2T
31 33 0 0 0
SMALL
GASTEIGER
 
@<TRIPOS>ATOM
      1  N1        28.4270   34.8300   18.7100 N.am   1  FMN1       -0.0958
      2  C2        28.3290   33.4990   18.3670 C.2    1  FMN1        0.3101
      3  O2        28.6290   33.1310   17.2350 O.2    1  FMN1       -0.2534
      4  N3        27.8930   32.5720   19.2860 N.am   1  FMN1       -0.0727
      5  C4        27.5600   32.9670   20.5670 C.2    1  FMN1        0.2726
      6  O4        27.1880   32.1300   21.3920 O.2    1  FMN1       -0.2695
      7  C4A       27.6550   34.3080   20.9220 C.3    1  FMN1        0.1631
      8  N5        27.3220   34.7100   22.2000 N.pl3  1  FMN1       -0.2381
      9  C5A       27.4190   36.0430   22.5510 C.3    1  FMN1        0.0859
     10  C6        27.0820   36.4480   23.8430 C.3    1  FMN1        0.0336
     11  C7        27.1710   37.7870   24.2050 C.3    1  FMN1       -0.0459
     12  C7M       26.7980   38.1850   25.5980 C.3    1  FMN1        0.0446
     13  C8        27.6070   38.7350   23.2670 C.3    1  FMN1       -0.0462
     14  C8M       27.7260   40.1920   23.6210 C.3    1  FMN1        0.0446
     15  C9        27.9410   38.3280   21.9780 C.3    1  FMN1        0.0295
     16  C9A       27.8480   36.9840   21.6120 C.3    1  FMN1        0.0604
     17  N10       28.1780   36.5770   20.3280 N.pl3  1  FMN1       -0.2823
     18  C10       28.0880   35.2420   19.9830 C.3    1  FMN1        0.1289
     19  C1'       28.5400   37.5840   19.2780 C.3    1  FMN1        0.1471
     20  C2'       29.7690   38.3685   19.7066 C.3    1  FMN1        0.1631
     21  O2'       30.0804   39.3142   18.7194 O.3    1  FMN1       -0.1780
     22  C3'       30.9662   37.4492   19.8804 C.3    1  FMN1        0.1752
     23  O3'       30.6606   36.4848   20.8519 O.3    1  FMN1       -0.1769
     24  C4'       32.2164   38.1935   20.3184 C.3    1  FMN1        0.1715
     25  O4'       32.5335   39.1715   19.3480 O.3    1  FMN1       -0.1772
     26  C5'       33.3806   37.2173   20.4659 C.3    1  FMN1        0.2000
     27  O5'       33.6317   36.6016   19.2198 O.3    1  FMN1       -0.3518
     28  P         34.0465   37.4853   17.9449 P.3    1  FMN1        0.0600
     29  O1P       35.3291   38.2505   18.1513 O.3    1  FMN1       -0.6341
     30  O2P       32.9364   38.4674   17.6800 O.3    1  FMN1       -0.6341
     31  O3P       34.2798   36.5637   16.7796 O.3    1  FMN1       -0.6341
@<TRIPOS>BOND
     1    1    2 am
     2    1   18 1
     3    2    3 2
     4    2    4 am
     5    4    5 am
     6    5    6 2
     7    5    7 1
     8    7    8 ar
     9    7   18 ar
    10    8    9 ar
    11    9   10 ar
    12    9   16 ar
    13   10   11 ar
    14   11   12 1
    15   11   13 ar
    16   13   14 1
    17   13   15 ar
    18   15   16 ar
    19   16   17 ar
    20   17   18 ar
    21   17   19 1
    22   19   20 1
    23   20   21 1
    24   20   22 1
    25   22   23 1
    26   22   24 1
    27   24   25 1
    28   24   26 1
    29   26   27 1
    30   27   28 1
    31   28   29 1
    32   28   30 1
    33   28   31 1
