@<TRIPOS>MOLECULE
3F2T_ligand.pdb
51 53 1 0 0
SMALL
AMBER ff14SB


@<TRIPOS>ATOM
      1 N1         28.4270   34.8300   18.7100 N.am      1 FMN   -0.2545
      2 C2         28.3290   33.4990   18.3670 C.2       1 FMN    0.3101
      3 O2         28.6290   33.1310   17.2350 O.2       1 FMN   -0.2534
      4 N3         27.8930   32.5720   19.2860 N.am      1 FMN   -0.2334
      5 C4         27.5600   32.9670   20.5670 C.2       1 FMN    0.2726
      6 O4         27.1880   32.1300   21.3920 O.2       1 FMN   -0.2695
      7 C4A        27.6550   34.3080   20.9220 C.ar      1 FMN    0.1631
      8 N5         27.3220   34.7100   22.2000 N.ar      1 FMN   -0.2381
      9 C5A        27.4190   36.0430   22.5510 C.ar      1 FMN    0.0859
     10 C6         27.0820   36.4480   23.8430 C.ar      1 FMN   -0.0313
     11 C7         27.1710   37.7870   24.2050 C.ar      1 FMN   -0.0459
     12 C7M        26.7980   38.1850   25.5980 C.3       1 FMN   -0.0394
     13 C8         27.6070   38.7350   23.2670 C.ar      1 FMN   -0.0462
     14 C8M        27.7260   40.1920   23.6210 C.3       1 FMN   -0.0394
     15 C9         27.9410   38.3280   21.9780 C.ar      1 FMN   -0.0351
     16 C9A        27.8480   36.9840   21.6120 C.ar      1 FMN    0.0604
     17 N10        28.1780   36.5770   20.3280 N.ar      1 FMN   -0.2823
     18 C10        28.0880   35.2420   19.9830 C.ar      1 FMN    0.1289
     19 C1'        28.5400   37.5840   19.2780 C.3       1 FMN    0.0467
     20 C2'        27.2820   38.1650   18.6540 C.3       1 FMN    0.0985
     21 O2'        26.7490   37.2410   17.7440 O.3       1 FMN   -0.3887
     22 C3'        27.5920   39.4490   17.9030 C.3       1 FMN    0.1095
     23 O3'        28.6110   39.1960   16.9730 O.3       1 FMN   -0.3876
     24 C4'        28.0480   40.5690   18.8230 C.3       1 FMN    0.1061
     25 O4'        27.1870   40.6240   19.9430 O.3       1 FMN   -0.3879
     26 C5'        28.0130   41.9020   18.0800 C.3       1 FMN    0.0802
     27 O5'        26.7070   42.1280   17.5920 O.3       1 FMN   -0.3518
     28 P          26.4360   43.2630   16.4890 P.3       1 FMN    0.0600
     29 O1P        26.2570   44.6350   17.0880 O.co2     1 FMN   -0.6341
     30 O2P        25.1810   42.8950   15.7430 O.co2     1 FMN   -0.6341
     31 O3P        27.6330   43.3440   15.5820 O.co2     1 FMN   -0.6341
     32 H1         28.7470   35.5044   18.0296 H         1 FMN    0.1587
     33 H3         27.8163   31.5999   19.0230 H         1 FMN    0.1607
     34 H6         26.7502   35.7171   24.5656 H         1 FMN    0.0649
     35 H9         28.2747   39.0580   21.2554 H         1 FMN    0.0646
     36 H1'        29.1199   38.3867   19.7335 H         1 FMN    0.0502
     37 H1''       29.1371   37.1009   18.5046 H         1 FMN    0.0502
     38 H2'        26.5499   38.3690   19.4353 H         1 FMN    0.0646
     39 H3'        26.6980   39.7714   17.3693 H         1 FMN    0.0657
     40 H4'        29.0655   40.3691   19.1589 H         1 FMN    0.0654
     41 H5'        28.2917   42.7061   18.7610 H         1 FMN    0.0599
     42 H5''       28.7135   41.8723   17.2455 H         1 FMN    0.0599
     43 HO4'       27.2149   41.5040   20.3257 H         1 FMN    0.2107
     44 H8M1       28.0821   40.7491   22.7544 H         1 FMN    0.0280
     45 H8M2       28.4319   40.3094   24.4432 H         1 FMN    0.0280
     46 H8M3       26.7504   40.5735   23.9224 H         1 FMN    0.0280
     47 H7M1       26.4867   37.3028   26.1574 H         1 FMN    0.0280
     48 H7M2       25.9772   38.9014   25.5635 H         1 FMN    0.0280
     49 H7M3       27.6581   38.6413   26.0881 H         1 FMN    0.0280
     50 HO3'       28.5306   39.8056   16.2358 H         1 FMN    0.2107
     51 HO2'       26.5464   36.4215   18.2011 H         1 FMN    0.2107
@<TRIPOS>BOND
     1    1    2 am
     2    1   18 1
     3    2    3 2
     4    2    4 am
     5    4    5 am
     6    5    6 2
     7    5    7 1
     8    7    8 ar
     9    7   18 ar
    10    8    9 ar
    11    9   10 ar
    12    9   16 ar
    13   10   11 ar
    14   11   12 1
    15   11   13 ar
    16   13   14 1
    17   13   15 ar
    18   15   16 ar
    19   16   17 ar
    20   17   18 ar
    21   17   19 1
    22   19   20 1
    23   20   21 1
    24   20   22 1
    25   22   23 1
    26   22   24 1
    27   24   25 1
    28   24   26 1
    29   26   27 1
    30   27   28 1
    31   28   29 1
    32   28   30 1
    33   28   31 1
    34   32    1 1
    35   33    4 1
    36   34   10 1
    37   35   15 1
    38   36   19 1
    39   37   19 1
    40   38   20 1
    41   39   22 1
    42   40   24 1
    43   41   26 1
    44   42   26 1
    45   43   25 1
    46   44   14 1
    47   45   14 1
    48   46   14 1
    49   47   12 1
    50   48   12 1
    51   49   12 1
    52   50   23 1
    53   51   21 1
@<TRIPOS>SUBSTRUCTURE
     1 FMN    24 RESIDUE           4 X     FMN     0 ROOT
