@<TRIPOS>MOLECULE
3F2T_RNA.pdb
3512 3792 109 0 0
NUCLEIC_ACID
AMBER ff14SB


@<TRIPOS>ATOM
      1 PG         -1.1580   36.9630   15.8250 P.3       1 GTP    1.2650
      2 O1G        -2.1530   36.3590   14.8540 O.co2     1 GTP   -0.9526
      3 O2G        -0.1230   37.7660   15.0640 O.co2     1 GTP   -0.9526
      4 O3G        -0.4610   35.8670   16.6010 O.co2     1 GTP   -0.9526
      5 O3B        -1.9680   37.9310   16.8380 O.3       1 GTP   -0.5322
      6 PB         -2.9790   37.3420   17.9530 P.3       1 GTP    1.3852
      7 O1B        -2.4730   37.6650   19.3400 O.co2     1 GTP   -0.8894
      8 O2B        -3.1740   35.8520   17.7830 O.co2     1 GTP   -0.8894
      9 O3A        -4.3550   38.1320   17.6990 O.3       1 GTP   -0.5689
     10 PA         -5.7420   37.3180   17.6540 P.3       1 GTP    1.2532
     11 O1A        -5.8720   36.6300   16.3160 O.co2     1 GTP   -0.8799
     12 O2A        -6.9310   38.2170   17.9260 O.co2     1 GTP   -0.8799
     13 O5'        -5.5650   36.2080   18.8050 O.3       1 GTP   -0.5987
     14 C5'        -5.6140   36.5580   20.1680 C.3       1 GTP    0.0558
     15 C4'        -6.7070   35.7430   20.8380 C.3       1 GTP    0.1065
     16 O4'        -7.8720   35.7700   20.0440 O.3       1 GTP   -0.3548
     17 C3'        -6.3440   34.2740   20.9250 C.3       1 GTP    0.2022
     18 O3'        -5.5960   33.9760   22.0870 O.3       1 GTP   -0.6541
     19 C2'        -7.6700   33.5280   20.8890 C.3       1 GTP    0.0670
     20 O2'        -8.2840   33.5560   22.1630 O.3       1 GTP   -0.6139
     21 C1'        -8.4370   34.4680   19.9530 C.3       1 GTP    0.0191
     22 N9         -8.3980   33.9530   18.5570 N.ar      1 GTP    0.0492
     23 C8         -7.8030   34.5570   17.4780 C.ar      1 GTP    0.1374
     24 N7         -7.9780   33.7800   16.3830 N.ar      1 GTP   -0.5709
     25 C5         -8.6810   32.6830   16.7390 C.ar      1 GTP    0.1744
     26 C6         -9.1290   31.5800   16.0170 C.2       1 GTP    0.4770
     27 O6         -8.8960   31.4890   14.8150 O.2       1 GTP   -0.5597
     28 N1         -9.8400   30.5880   16.6570 N.2       1 GTP   -0.4787
     29 C2        -10.1020   30.6930   18.0080 C.2       1 GTP    0.7657
     30 N2        -10.7850   29.7380   18.6280 N.pl3     1 GTP   -0.9672
     31 N3         -9.6570   31.7910   18.7200 N.pl3     1 GTP   -0.6323
     32 C4         -8.9560   32.7760   18.1000 C.ar      1 GTP    0.1222
     33 H5'        -4.6544   36.3414   20.6374 H         1 GTP    0.0679
     34 H5''       -5.8377   37.6204   20.2653 H         1 GTP    0.0679
     35 H4'        -6.9180   36.1391   21.8313 H         1 GTP    0.1174
     36 H3'        -5.7591   34.0005   20.0468 H         1 GTP    0.0615
     37 H2'        -7.5754   32.5187   20.4884 H         1 GTP    0.0972
     38 H1'        -9.4760   34.5145   20.2793 H         1 GTP    0.2006
     39 H8         -7.2790   35.5011   17.4989 H         1 GTP    0.1640
     40 H3         -9.8543   31.8616   19.7080 H         1 GTP    0.0000
     41 HN21      -10.9772   29.8151   19.6165 H         1 GTP    0.4364
     42 HN22      -11.1123   28.9344   18.1111 H         1 GTP    0.4364
     43 HO2'       -7.8118   32.9702   22.7592 H         1 GTP    0.4186
     44 P          -4.3510   32.9970   21.9510 P.3       2   G    1.1662
     45 OP1        -3.4480   33.2150   23.1020 O.co2     2   G   -0.7760
     46 OP2        -3.8120   33.0980   20.5770 O.co2     2   G   -0.7760
     47 O5'        -5.1040   31.5880   22.1040 O.3       2   G   -0.4989
     48 C5'        -5.4810   31.0970   23.3930 C.3       2   G    0.0558
     49 C4'        -6.3300   29.8390   23.2860 C.3       2   G    0.1065
     50 O4'        -7.4190   30.0580   22.3510 O.3       2   G   -0.3548
     51 C3'        -5.6230   28.6110   22.7280 C.3       2   G    0.2022
     52 O3'        -4.8790   27.9210   23.7200 O.3       2   G   -0.5246
     53 C2'        -6.8030   27.7960   22.2150 C.3       2   G    0.0670
     54 O2'        -7.5600   27.2070   23.2550 O.3       2   G   -0.6139
     55 C1'        -7.6000   28.9060   21.5410 C.3       2   G    0.0191
     56 N9         -7.1670   29.1860   20.1630 N.ar      2   G    0.0492
     57 C8         -6.4600   30.2770   19.7030 C.ar      2   G    0.1374
     58 N7         -6.2210   30.2470   18.4200 N.ar      2   G   -0.5709
     59 C5         -6.8060   29.0610   17.9970 C.ar      2   G    0.1744
     60 C6         -6.8760   28.4860   16.7040 C.2       2   G    0.4770
     61 O6         -6.4130   28.9300   15.6440 O.2       2   G   -0.5597
     62 N1         -7.5560   27.2680   16.7110 N.am      2   G   -0.4787
     63 C2         -8.1020   26.6810   17.8310 C.2       2   G    0.7657
     64 N2         -8.7270   25.5080   17.6530 N.pl3     2   G   -0.9672
     65 N3         -8.0510   27.2120   19.0450 N.2       2   G   -0.6323
     66 C4         -7.3900   28.3970   19.0560 C.ar      2   G    0.1222
     67 H5'        -6.0529   31.8667   23.9113 H         2   G    0.0679
     68 H5''       -4.5817   30.8731   23.9668 H         2   G    0.0679
     69 H4'        -6.7421   29.6005   24.2665 H         2   G    0.1174
     70 H3'        -4.9734   28.8947   21.9000 H         2   G    0.0615
     71 H2'        -6.4798   27.0480   21.4910 H         2   G    0.0972
     72 H1'        -8.6558   28.6352   21.5357 H         2   G    0.2006
     73 H8         -6.1341   31.0820   20.3450 H         2   G    0.1640
     74 H1         -7.6551   26.7815   15.8314 H         2   G    0.3424
     75 H21        -8.7757   25.0964   16.7320 H         2   G    0.4364
     76 H22        -9.1491   25.0361   18.4400 H         2   G    0.4364
     77 HO2'       -7.0464   26.5103   23.6703 H         2   G    0.4186
     78 P          -3.4780   27.2740   23.2990 P.3       3   A    1.1662
     79 OP1        -2.7820   26.8460   24.5300 O.co2     3   A   -0.7760
     80 OP2        -2.8100   28.2130   22.3680 O.co2     3   A   -0.7760
     81 O5'        -3.9140   25.9750   22.4670 O.3       3   A   -0.4989
     82 C5'        -4.5490   24.8560   23.0950 C.3       3   A    0.0558
     83 C4'        -4.9310   23.7990   22.0680 C.3       3   A    0.1065
     84 O4'        -5.9270   24.3460   21.1580 O.3       3   A   -0.3548
     85 C3'        -3.8100   23.3410   21.1360 C.3       3   A    0.2022
     86 O3'        -2.9640   22.3420   21.7090 O.3       3   A   -0.5246
     87 C2'        -4.6020   22.8600   19.9240 C.3       3   A    0.0670
     88 O2'        -5.2900   21.6440   20.1510 O.3       3   A   -0.6139
     89 C1'        -5.5890   24.0180   19.8160 C.3       3   A    0.0394
     90 N9         -5.0310   25.2000   19.1350 N.ar      3   A   -0.0251
     91 C8         -4.6130   26.3740   19.7090 C.ar      3   A    0.2006
     92 N7         -4.1480   27.2590   18.8610 N.ar      3   A   -0.6073
     93 C5         -4.2640   26.6280   17.6360 C.ar      3   A    0.0515
     94 C6         -3.9450   27.0420   16.3270 C.ar      3   A    0.7009
     95 N6         -3.4230   28.2400   16.0470 N.pl3     3   A   -0.9019
     96 N1         -4.1850   26.1750   15.3180 N.ar      3   A   -0.7615
     97 C2         -4.7100   24.9760   15.6090 C.ar      3   A    0.5875
     98 N3         -5.0520   24.4750   16.7970 N.ar      3   A   -0.6997
     99 C4         -4.8030   25.3580   17.7820 C.ar      3   A    0.3053
    100 H5'        -5.4489   25.1977   23.6064 H         3   A    0.0679
    101 H5''       -3.8665   24.4184   23.8235 H         3   A    0.0679
    102 H4'        -5.3491   22.9329   22.5811 H         3   A    0.1174
    103 H3'        -3.2059   24.2024   20.8510 H         3   A    0.0615
    104 H2'        -3.9693   22.7965   19.0387 H         3   A    0.0972
    105 H1'        -6.4826   23.6843   19.2886 H         3   A    0.2007
    106 H8         -4.6630   26.5543   20.7727 H         3   A    0.1553
    107 H2         -4.8796   24.3253   14.7639 H         3   A    0.0473
    108 H61        -3.2390   28.8972   16.7915 H         3   A    0.4115
    109 H62        -3.2125   28.4882   15.0909 H         3   A    0.4115
    110 HO2'       -4.6571   20.9252   20.2167 H         3   A    0.4186
    111 P          -1.3740   22.4490   21.4870 P.3       4   U    1.1662
    112 OP1        -0.7000   21.6770   22.5520 O.co2     4   U   -0.7760
    113 OP2        -1.0240   23.8760   21.2990 O.co2     4   U   -0.7760
    114 O5'        -1.1380   21.7050   20.0880 O.3       4   U   -0.4989
    115 C5'        -1.7030   20.4150   19.8260 C.3       4   U    0.0558
    116 C4'        -1.7420   20.1250   18.3330 C.3       4   U    0.1065
    117 O4'        -2.6670   21.0410   17.6810 O.3       4   U   -0.3548
    118 C3'        -0.4250   20.3320   17.5840 C.3       4   U    0.2022
    119 O3'         0.4490   19.2180   17.6910 O.3       4   U   -0.5246
    120 C2'        -0.9240   20.5440   16.1600 C.3       4   U    0.0670
    121 O2'        -1.3150   19.3450   15.5170 O.3       4   U   -0.6139
    122 C1'        -2.1300   21.4440   16.4260 C.3       4   U    0.0674
    123 N1         -1.7480   22.9100   16.4410 N.am      4   U    0.0418
    124 C2         -1.6460   23.5870   15.2370 C.2       4   U    0.4687
    125 O2         -1.8780   23.0690   14.1570 O.2       4   U   -0.5477
    126 N3         -1.2750   24.9090   15.3440 N.am      4   U   -0.3549
    127 C4         -0.9890   25.6080   16.5070 C.2       4   U    0.5952
    128 O4         -0.6720   26.7910   16.4470 O.2       4   U   -0.5761
    129 C5         -1.1040   24.8370   17.7200 C.2       4   U   -0.3635
    130 C6         -1.4670   23.5500   17.6400 C.2       4   U   -0.1126
    131 H5'        -1.0979   19.6548   20.3201 H         4   U    0.0679
    132 H5''       -2.7170   20.3804   20.2243 H         4   U    0.0679
    133 H4'        -2.0840   19.1018   18.1772 H         4   U    0.1174
    134 H3'         0.0720   21.2329   17.9439 H         4   U    0.0615
    135 H2'        -0.1765   21.0706   15.5667 H         4   U    0.0972
    136 H1'        -2.8765   21.2782   15.6492 H         4   U    0.1824
    137 H3         -1.2033   25.4267   14.4797 H         4   U    0.3154
    138 H5         -0.9005   25.2904   18.6789 H         4   U    0.1811
    139 H6         -1.5449   22.9816   18.5550 H         4   U    0.2188
    140 HO2'       -0.5416   18.7980   15.3612 H         4   U    0.4186
    141 P           2.0320   19.4620   17.7320 P.3       5   C    1.1662
    142 OP1         2.6730   18.1630   18.0310 O.co2     5   C   -0.7760
    143 OP2         2.3050   20.6360   18.5950 O.co2     5   C   -0.7760
    144 O5'         2.3860   19.8840   16.2290 O.3       5   C   -0.4989
    145 C5'         2.3690   18.9270   15.1690 C.3       5   C    0.0558
    146 C4'         2.4290   19.6170   13.8150 C.3       5   C    0.1065
    147 O4'         1.3910   20.6340   13.7420 O.3       5   C   -0.3548
    148 C3'         3.7140   20.3820   13.5180 C.3       5   C    0.2022
    149 O3'         4.7510   19.5350   13.0340 O.3       5   C   -0.5246
    150 C2'         3.2280   21.3490   12.4450 C.3       5   C    0.0670
    151 O2'         3.0810   20.7430   11.1740 O.3       5   C   -0.6139
    152 C1'         1.8710   21.7570   13.0140 C.3       5   C    0.0066
    153 N1          1.9670   22.9770   13.9050 N.am      5   C   -0.0484
    154 C2          2.0530   24.2590   13.3290 C.2       5   C    0.7538
    155 O2          2.0280   24.3820   12.0970 O.2       5   C   -0.6252
    156 N3          2.1560   25.3410   14.1440 N.2       5   C   -0.7584
    157 C4          2.1840   25.1840   15.4720 C.2       5   C    0.8185
    158 N4          2.2850   26.2790   16.2310 N.pl3     5   C   -0.9530
    159 C5          2.1050   23.8950   16.0800 C.2       5   C   -0.5215
    160 C6          2.0020   22.8350   15.2680 C.2       5   C    0.0053
    161 H5'         3.2296   18.2660   15.2711 H         5   C    0.0679
    162 H5''        1.4541   18.3378   15.2317 H         5   C    0.0679
    163 H4'         2.2626   18.8792   13.0301 H         5   C    0.1174
    164 H3'         4.0469   20.9272   14.4012 H         5   C    0.0615
    165 H2'         3.8902   22.2125   12.3815 H         5   C    0.0972
    166 H1'         1.1876   21.9682   12.1915 H         5   C    0.2029
    167 H5          2.1274   23.7790   17.1535 H         5   C    0.1928
    168 H6          1.9452   21.8455   15.6969 H         5   C    0.1958
    169 H41         2.3392   27.1901   15.7984 H         5   C    0.4234
    170 H42         2.3072   26.1956   17.2373 H         5   C    0.4234
    171 HO2'        2.6665   21.3633   10.5698 H         5   C    0.4186
    172 P           6.2930   19.9550   13.2100 P.3       6   U    1.1662
    173 OP1         7.0800   18.7050   13.2370 O.co2     6   U   -0.7760
    174 OP2         6.3980   20.9200   14.3290 O.co2     6   U   -0.7760
    175 O5'         6.6520   20.7590   11.8720 O.3       6   U   -0.4989
    176 C5'         6.3290   20.2330   10.5860 C.3       6   U    0.0558
    177 C4'         6.2310   21.3500    9.5620 C.3       6   U    0.1065
    178 O4'         5.1930   22.2880    9.9420 O.3       6   U   -0.3548
    179 C3'         7.4760   22.2100    9.4500 C.3       6   U    0.2022
    180 O3'         8.4080   21.5990    8.5850 O.3       6   U   -0.5246
    181 C2'         6.9240   23.5090    8.8740 C.3       6   U    0.0670
    182 O2'         6.7340   23.4570    7.4730 O.3       6   U   -0.6139
    183 C1'         5.5720   23.6070    9.5750 C.3       6   U    0.0674
    184 N1          5.5670   24.5060   10.7890 N.am      6   U    0.0418
    185 C2          5.4280   25.8780   10.6220 C.2       6   U    0.4687
    186 O2          5.3120   26.4220    9.5370 O.2       6   U   -0.5477
    187 N3          5.4270   26.6050   11.7880 N.am      6   U   -0.3549
    188 C4          5.5530   26.1170   13.0780 C.2       6   U    0.5952
    189 O4          5.5400   26.8990   14.0220 O.2       6   U   -0.5761
    190 C5          5.6930   24.6850   13.1770 C.2       6   U   -0.3635
    191 C6          5.6950   23.9530   12.0550 C.2       6   U   -0.1126
    192 H5'         5.3727   19.7129   10.6415 H         6   U    0.0679
    193 H5''        7.1038   19.5303   10.2794 H         6   U    0.0679
    194 H4'         5.9955   20.9260    8.5859 H         6   U    0.1174
    195 H3'         7.9163   22.3805   10.4324 H         6   U    0.0615
    196 H2'         7.5603   24.3514    9.1452 H         6   U    0.0972
    197 H1'         4.8416   23.9886    8.8615 H         6   U    0.1824
    198 H3          5.3229   27.6052   11.6940 H         6   U    0.3154
    199 H5          5.7947   24.2098   14.1415 H         6   U    0.1811
    200 H6          5.8013   22.8816   12.1400 H         6   U    0.2188
    201 HO2'        7.2952   24.1108    7.0497 H         6   U    0.4186
    202 P           9.9750   21.7270    8.8890 P.3       7   U    1.1662
    203 OP1        10.4820   20.3730    9.1940 O.co2     7   U   -0.7760
    204 OP2        10.1550   22.8040    9.8870 O.co2     7   U   -0.7760
    205 O5'        10.5990   22.2130    7.4920 O.3       7   U   -0.4989
    206 C5'         9.8050   22.8890    6.4980 C.3       7   U    0.0558
    207 C4'        10.3400   24.2870    6.2060 C.3       7   U    0.1065
    208 O4'         9.5110   25.2740    6.8910 O.3       7   U   -0.3548
    209 C3'        11.7750   24.5330    6.6810 C.3       7   U    0.2022
    210 O3'        12.4620   25.4560    5.8300 O.3       7   U   -0.5246
    211 C2'        11.5130   25.1220    8.0580 C.3       7   U    0.0670
    212 O2'        12.6140   25.8190    8.6070 O.3       7   U   -0.6139
    213 C1'        10.3560   26.0540    7.7120 C.3       7   U    0.0674
    214 N1          9.6550   26.5810    8.9250 N.am      7   U    0.0418
    215 C2          9.0500   27.8210    8.8800 C.2       7   U    0.4687
    216 O2          9.0060   28.5100    7.8760 O.2       7   U   -0.5477
    217 N3          8.4850   28.2230   10.0680 N.am      7   U   -0.3549
    218 C4          8.4760   27.5280   11.2680 C.2       7   U    0.5952
    219 O4          7.9280   28.0100   12.2480 O.2       7   U   -0.5761
    220 C5          9.1320   26.2510   11.2410 C.2       7   U   -0.3635
    221 C6          9.6910   25.8430   10.0980 C.2       7   U   -0.1126
    222 H5'         8.7803   22.9713    6.8603 H         7   U    0.0679
    223 H5''        9.8122   22.3048    5.5778 H         7   U    0.0679
    224 H4'        10.2882   24.4672    5.1323 H         7   U    0.1174
    225 H3'        12.3241   23.5946    6.7586 H         7   U    0.0615
    226 H2'        11.1787   24.3438    8.7441 H         7   U    0.0972
    227 H1'        10.7385   26.8932    7.1310 H         7   U    0.1824
    228 H3          8.0265   29.1229   10.0661 H         7   U    0.3154
    229 H5          9.1727   25.6333   12.1260 H         7   U    0.1811
    230 H6         10.1970   24.8889   10.0874 H         7   U    0.2188
    231 HO2'       12.4536   25.9891    9.5381 H         7   U    0.4186
    232 P          14.0010   25.8310    6.0750 P.3       8   C    1.1662
    233 OP1        14.7050   25.6730    4.7830 O.co2     8   C   -0.7760
    234 OP2        14.4880   25.0940    7.2640 O.co2     8   C   -0.7760
    235 O5'        13.9640   27.3880    6.4530 O.3       8   C   -0.4989
    236 C5'        13.3770   28.3340    5.5580 C.3       8   C    0.0558
    237 C4'        13.2700   29.7210    6.1750 C.3       8   C    0.1065
    238 O4'        12.1090   29.8100    7.0520 O.3       8   C   -0.3548
    239 C3'        14.4140   30.1570    7.0790 C.3       8   C    0.2022
    240 O3'        15.5830   30.5210    6.3430 O.3       8   C   -0.5246
    241 C2'        13.7600   31.3490    7.7710 C.3       8   C    0.0670
    242 O2'        13.6840   32.4990    6.9510 O.3       8   C   -0.6139
    243 C1'        12.3630   30.7910    8.0530 C.3       8   C    0.0066
    244 N1         12.2410   30.1870    9.4390 N.am      8   C   -0.0484
    245 C2         12.1020   31.0200   10.5690 C.2       8   C    0.7538
    246 O2         12.0640   32.2480   10.4260 O.2       8   C   -0.6252
    247 N3         12.0040   30.4550   11.8010 N.2       8   C   -0.7584
    248 C4         12.0500   29.1260   11.9340 C.2       8   C    0.8185
    249 N4         11.9470   28.6140   13.1640 N.pl3     8   C   -0.9530
    250 C5         12.2040   28.2620   10.8080 C.2       8   C   -0.5215
    251 C6         12.2950   28.8280    9.5970 C.2       8   C    0.0053
    252 H5'        13.9922   28.3960    4.6603 H         8   C    0.0679
    253 H5''       12.3801   27.9904    5.2821 H         8   C    0.0679
    254 H4'        13.1596   30.4520    5.3741 H         8   C    0.1174
    255 H3'        14.6468   29.3762    7.8031 H         8   C    0.0615
    256 H2'        14.2749   31.5786    8.7039 H         8   C    0.0972
    257 H1'        11.6342   31.5953    7.9526 H         8   C    0.2029
    258 H5         12.2457   27.1895   10.9281 H         8   C    0.1928
    259 H6         12.4134   28.1990    8.7271 H         8   C    0.1958
    260 H41        11.8381   29.2275   13.9589 H         8   C    0.4234
    261 H42        11.9781   27.6135   13.2988 H         8   C    0.4234
    262 HO2'       13.1644   33.1738    7.3940 H         8   C    0.4186
    263 P          17.0410   30.3470    7.0030 P.3       9   G    1.1662
    264 OP1        18.0480   30.7580    6.0010 O.co2     9   G   -0.7760
    265 OP2        17.1290   29.0030    7.6200 O.co2     9   G   -0.7760
    266 O5'        17.0440   31.4130    8.1930 O.3       9   G   -0.4989
    267 C5'        16.8740   32.7980    7.9280 C.3       9   G    0.0558
    268 C4'        16.6910   33.5400    9.2340 C.3       9   G    0.1065
    269 O4'        15.4500   33.1470    9.8840 O.3       9   G   -0.3548
    270 C3'        17.7540   33.2330   10.2720 C.3       9   G    0.2022
    271 O3'        18.9160   33.9680    9.9910 O.3       9   G   -0.5246
    272 C2'        17.0400   33.7120   11.5290 C.3       9   G    0.0670
    273 O2'        16.9650   35.1200   11.6050 O.3       9   G   -0.6139
    274 C1'        15.6510   33.1280   11.2910 C.3       9   G    0.0191
    275 N9         15.5540   31.7570   11.7940 N.ar      9   G    0.0492
    276 C8         15.8830   30.6000   11.1240 C.ar      9   G    0.1374
    277 N7         15.7140   29.5190   11.8320 N.ar      9   G   -0.5709
    278 C5         15.2530   29.9840   13.0550 C.ar      9   G    0.1744
    279 C6         14.9000   29.2670   14.2240 C.2       9   G    0.4770
    280 O6         14.9270   28.0420   14.4030 O.2       9   G   -0.5597
    281 N1         14.4750   30.1160   15.2480 N.am      9   G   -0.4787
    282 C2         14.4100   31.4900   15.1520 C.2       9   G    0.7657
    283 N2         13.9830   32.1470   16.2420 N.pl3     9   G   -0.9672
    284 N3         14.7430   32.1720   14.0600 N.2       9   G   -0.6323
    285 C4         15.1550   31.3590   13.0530 C.ar      9   G    0.1222
    286 H5'        17.7551   33.1805    7.4128 H         9   G    0.0679
    287 H5''       15.9943   32.9431    7.3009 H         9   G    0.0679
    288 H4'        16.6738   34.6126    9.0408 H         9   G    0.1174
    289 H3'        17.9637   32.1644   10.3192 H         9   G    0.0615
    290 H2'        17.4959   33.2924   12.4257 H         9   G    0.0972
    291 H1'        14.9015   33.7520   11.7778 H         9   G    0.2006
    292 H8         16.2469   30.5893   10.1072 H         9   G    0.1640
    293 H1         14.1952   29.6933   16.1216 H         9   G    0.3424
    294 H21        13.7293   31.6336   17.0740 H         9   G    0.4364
    295 H22        13.9154   33.1547   16.2301 H         9   G    0.4364
    296 HO2'       17.8472   35.4916   11.5326 H         9   G    0.4186
    297 P          20.3530   33.4680   10.4870 P.3      10   G    1.1662
    298 OP1        21.0180   32.7770    9.3600 O.co2    10   G   -0.7760
    299 OP2        20.1950   32.7890   11.7920 O.co2    10   G   -0.7760
    300 O5'        21.0920   34.8550   10.7370 O.3      10   G   -0.4989
    301 C5'        20.9020   35.8980    9.7950 C.3      10   G    0.0558
    302 C4'        22.1980   36.6390    9.5610 C.3      10   G    0.1065
    303 O4'        22.4490   37.4970   10.7040 O.3      10   G   -0.3548
    304 C3'        23.4360   35.7580    9.4220 C.3      10   G    0.2022
    305 O3'        24.3450   36.3830    8.5210 O.3      10   G   -0.5246
    306 C2'        23.9760   35.7420   10.8540 C.3      10   G    0.0670
    307 O2'        25.3540   35.4360   10.9350 O.3      10   G   -0.6139
    308 C1'        23.7190   37.1920   11.2390 C.3      10   G    0.0191
    309 N9         23.7400   37.4730   12.6750 N.ar     10   G    0.0492
    310 C8         23.4580   36.6110   13.7080 C.ar     10   G    0.1374
    311 N7         23.5780   37.1600   14.8860 N.ar     10   G   -0.5709
    312 C5         23.9690   38.4700   14.6220 C.ar     10   G    0.1744
    313 C6         24.2540   39.5480   15.5020 C.2      10   G    0.4770
    314 O6         24.2260   39.5670   16.7390 O.2      10   G   -0.5597
    315 N1         24.6130   40.7020   14.8140 N.am     10   G   -0.4787
    316 C2         24.6860   40.8070   13.4490 C.2      10   G    0.7657
    317 N2         25.0510   41.9980   12.9670 N.pl3    10   G   -0.9672
    318 N3         24.4230   39.8140   12.6130 N.2      10   G   -0.6323
    319 C4         24.0720   38.6750   13.2640 C.ar     10   G    0.1222
    320 H5'        20.5566   35.4723    8.8528 H        10   G    0.0679
    321 H5''       20.1523   36.5931   10.1730 H        10   G    0.0679
    322 H4'        22.0986   37.2561    8.6681 H        10   G    0.1174
    323 H3'        23.1727   34.7548    9.0867 H        10   G    0.0615
    324 H2'        23.3925   35.0666   11.4797 H        10   G    0.0972
    325 H1'        24.4636   37.8200   10.7498 H        10   G    0.2006
    326 H8         23.1662   35.5818   13.5596 H        10   G    0.1640
    327 H1         24.8361   41.5222   15.3595 H        10   G    0.3424
    328 H21        25.2538   42.7584   13.6001 H        10   G    0.4364
    329 H22        25.1242   42.1382   11.9695 H        10   G    0.4364
    330 HO2'       25.4977   34.5303   10.6510 H        10   G    0.4186
    331 P          25.3810   35.5260    7.6490 P.3      11   G    1.1662
    332 OP1        24.5990   34.8210    6.6040 O.co2    11   G   -0.7760
    333 OP2        26.2740   34.7730    8.5620 O.co2    11   G   -0.7760
    334 O5'        26.2670   36.6680    6.9660 O.3      11   G   -0.4989
    335 C5'        25.6310   37.7970    6.3710 C.3      11   G    0.0558
    336 C4'        26.4490   39.0510    6.6040 C.3      11   G    0.1065
    337 O4'        26.1220   39.5900    7.8990 O.3      11   G   -0.3548
    338 C3'        27.9490   38.8350    6.6380 C.3      11   G    0.2022
    339 O3'        28.4580   38.9700    5.3280 O.3      11   G   -0.5246
    340 C2'        28.4390   39.9610    7.5370 C.3      11   G    0.0670
    341 O2'        28.6250   41.1630    6.8180 O.3      11   G   -0.6139
    342 C1'        27.2760   40.1370    8.5060 C.3      11   G    0.0191
    343 N9         27.4420   39.5400    9.8360 N.ar     11   G    0.0492
    344 C8         27.4490   38.2060   10.1620 C.ar     11   G    0.1374
    345 N7         27.5850   37.9830   11.4380 N.ar     11   G   -0.5709
    346 C5         27.6620   39.2490   11.9990 C.ar     11   G    0.1744
    347 C6         27.8130   39.6470   13.3510 C.2      11   G    0.4770
    348 O6         27.9070   38.9310   14.3550 O.2      11   G   -0.5597
    349 N1         27.8480   41.0340   13.4830 N.am     11   G   -0.4787
    350 C2         27.7440   41.9260   12.4430 C.2      11   G    0.7657
    351 N2         27.7910   43.2280   12.7560 N.pl3    11   G   -0.9672
    352 N3         27.5970   41.5650   11.1780 N.2      11   G   -0.6323
    353 C4         27.5700   40.2170   11.0270 C.ar     11   G    0.1222
    354 H5'        25.5308   37.6283    5.2988 H        11   G    0.0679
    355 H5''       24.6414   37.9257    6.8095 H        11   G    0.0679
    356 H4'        26.2081   39.7863    5.8363 H        11   G    0.1174
    357 H3'        28.1967   37.8601    7.0579 H        11   G    0.0615
    358 H2'        29.3490   39.6744    8.0642 H        11   G    0.0972
    359 H1'        27.1095   41.2061    8.6378 H        11   G    0.2006
    360 H8         27.3511   37.4175    9.4305 H        11   G    0.1640
    361 H1         27.9581   41.4119   14.4131 H        11   G    0.3424
    362 H21        27.9007   43.5123   13.7189 H        11   G    0.4364
    363 H22        27.7167   43.9252   12.0290 H        11   G    0.4364
    364 HO2'       29.5253   41.2016    6.4871 H        11   G    0.4186
    365 P          29.7140   38.0940    4.8550 P.3      12   G    1.1662
    366 OP1        29.5610   37.9110    3.3950 O.co2    12   G   -0.7760
    367 OP2        29.8710   36.9120    5.7390 O.co2    12   G   -0.7760
    368 O5'        30.9640   39.0530    5.1440 O.3      12   G   -0.4989
    369 C5'        31.0160   40.3390    4.5520 C.3      12   G    0.0558
    370 C4'        32.0100   41.1830    5.3020 C.3      12   G    0.1065
    371 O4'        31.5290   41.3250    6.6600 O.3      12   G   -0.3548
    372 C3'        33.3890   40.5590    5.4320 C.3      12   G    0.2022
    373 O3'        34.2140   40.9320    4.3180 O.3      12   G   -0.5246
    374 C2'        33.8820   41.1640    6.7440 C.3      12   G    0.0670
    375 O2'        34.3860   42.4690    6.5460 O.3      12   G   -0.6139
    376 C1'        32.6040   41.2290    7.5790 C.3      12   G    0.0191
    377 N9         32.3460   40.0970    8.4820 N.ar     12   G    0.0492
    378 C8         32.4880   38.7570    8.2170 C.ar     12   G    0.1374
    379 N7         32.1580   37.9820    9.2100 N.ar     12   G   -0.5709
    380 C5         31.7610   38.8580   10.2020 C.ar     12   G    0.1744
    381 C6         31.2950   38.5980   11.5110 C.2      12   G    0.4770
    382 O6         31.1400   37.5010   12.0580 O.2      12   G   -0.5597
    383 N1         30.9880   39.7690   12.2010 N.am     12   G   -0.4787
    384 C2         31.1210   41.0370   11.6870 C.2      12   G    0.7657
    385 N2         30.7770   42.0520   12.4850 N.pl3    12   G   -0.9672
    386 N3         31.5610   41.2930   10.4640 N.2      12   G   -0.6323
    387 C4         31.8640   40.1610    9.7740 C.ar     12   G    0.1222
    388 H5'        31.3248   40.2496    3.5105 H        12   G    0.0679
    389 H5''       30.0313   40.8038    4.6021 H        12   G    0.0679
    390 H4'        32.0905   42.1639    4.8335 H        12   G    0.1174
    391 H3'        33.3155   39.4744    5.5112 H        12   G    0.0615
    392 H2'        34.6268   40.5233    7.2160 H        12   G    0.0972
    393 H1'        32.6292   42.1424    8.1733 H        12   G    0.2006
    394 H8         32.8420   38.3795    7.2691 H        12   G    0.1640
    395 H1         30.6432   39.6798   13.1461 H        12   G    0.3424
    396 H21        30.4391   41.8681   13.4188 H        12   G    0.4364
    397 H22        30.8549   43.0032   12.1544 H        12   G    0.4364
    398 HO2'       35.2651   42.4179    6.1636 H        12   G    0.4186
    399 P          35.6440   40.2360    4.0350 P.3      13   C    1.1662
    400 OP1        36.1590   40.7700    2.7600 O.co2    13   C   -0.7760
    401 OP2        35.4810   38.7810    4.2260 O.co2    13   C   -0.7760
    402 O5'        36.6320   40.7610    5.1700 O.3      13   C   -0.4989
    403 C5'        37.9610   40.2660    5.1800 C.3      13   C    0.0558
    404 C4'        38.9740   41.3890    5.2700 C.3      13   C    0.1065
    405 O4'        38.8470   42.0420    6.5480 O.3      13   C   -0.3548
    406 C3'        40.4130   40.9210    5.1980 C.3      13   C    0.2022
    407 O3'        40.8470   41.0680    3.8740 O.3      13   C   -0.5246
    408 C2'        41.1750   41.8840    6.0960 C.3      13   C    0.0670
    409 O2'        41.8460   42.8870    5.3590 O.3      13   C   -0.6139
    410 C1'        40.1050   42.5240    6.9670 C.3      13   C    0.0066
    411 N1         40.2840   42.2200    8.4140 N.am     13   C   -0.0484
    412 C2         41.0810   43.0610    9.2040 C.2      13   C    0.7538
    413 O2         41.6100   44.0540    8.6910 O.2      13   C   -0.6252
    414 N3         41.2370   42.7640   10.5210 N.2      13   C   -0.7584
    415 C4         40.6310   41.6900   11.0450 C.2      13   C    0.8185
    416 N4         40.8110   41.4420   12.3480 N.pl3    13   C   -0.9530
    417 C5         39.8210   40.8180   10.2570 C.2      13   C   -0.5215
    418 C6         39.6760   41.1200    8.9610 C.2      13   C    0.0053
    419 H5'        38.0864   39.6070    6.0392 H        13   C    0.0679
    420 H5''       38.1374   39.6986    4.2662 H        13   C    0.0679
    421 H4'        38.7872   42.1102    4.4743 H        13   C    0.1174
    422 H3'        40.5153   39.8910    5.5396 H        13   C    0.0615
    423 H2'        41.8848   41.3363    6.7160 H        13   C    0.0972
    424 H1'        40.1343   43.6045    6.8265 H        13   C    0.2029
    425 H5         39.3447   39.9502   10.6887 H        13   C    0.1928
    426 H6         39.0681   40.4845    8.3341 H        13   C    0.1958
    427 H41        41.3866   42.0577   12.9044 H        13   C    0.4234
    428 H42        40.3712   40.6392   12.7747 H        13   C    0.4234
    429 HO2'       42.5214   42.4830    4.8092 H        13   C    0.4186
    430 P          41.9970   40.1400    3.2660 P.3      14   A    1.1662
    431 OP1        41.6000   38.7340    3.5170 O.co2    14   A   -0.7760
    432 OP2        43.3260   40.6480    3.7150 O.co2    14   A   -0.7760
    433 O5'        41.8840   40.4470    1.6970 O.3      14   A   -0.4989
    434 C5'        40.6680   40.9150    1.1310 C.3      14   A    0.0558
    435 C4'        40.9000   42.0020    0.0940 C.3      14   A    0.1065
    436 O4'        40.2810   43.2290    0.5440 O.3      14   A   -0.3548
    437 C3'        42.3340   42.4180   -0.1990 C.3      14   A    0.2022
    438 O3'        42.9700   41.5100   -1.0770 O.3      14   A   -0.5246
    439 C2'        42.0890   43.7570   -0.8810 C.3      14   A    0.0670
    440 O2'        41.6900   43.6260   -2.2320 O.3      14   A   -0.6139
    441 C1'        40.9650   44.3290   -0.0170 C.3      14   A    0.0394
    442 N9         41.5220   45.1300    1.0640 N.ar     14   A   -0.0251
    443 C8         41.7630   44.7350    2.3500 C.ar     14   A    0.2006
    444 N7         42.3090   45.6690    3.0930 N.ar     14   A   -0.6073
    445 C5         42.4510   46.7440    2.2300 C.ar     14   A    0.0515
    446 C6         42.9710   48.0470    2.4000 C.ar     14   A    0.7009
    447 N6         43.4700   48.4990    3.5560 N.pl3    14   A   -0.9019
    448 N1         42.9630   48.8720    1.3310 N.ar     14   A   -0.7615
    449 C2         42.4660   48.4180    0.1720 C.ar     14   A    0.5875
    450 N3         41.9520   47.2190   -0.1080 N.ar     14   A   -0.6997
    451 C4         41.9780   46.4230    0.9720 C.ar     14   A    0.3053
    452 H5'        40.1575   40.0781    0.6544 H        14   A    0.0679
    453 H5''       40.0356   41.3111    1.9255 H        14   A    0.0679
    454 H4'        40.4287   41.6973   -0.8404 H        14   A    0.1174
    455 H3'        42.9047   42.5424    0.7213 H        14   A    0.0615
    456 H2'        42.9770   44.3850   -0.8091 H        14   A    0.0972
    457 H1'        40.2868   44.9288   -0.6239 H        14   A    0.2007
    458 H8         41.5266   43.7481    2.7197 H        14   A    0.1553
    459 H2         42.4841   49.1197   -0.6488 H        14   A    0.0473
    460 H61        44.4574   48.2889    3.5231 H        14   A    0.4115
    461 H62        43.0768   47.9210    4.2850 H        14   A    0.4115
    462 HO2'       42.4156   43.2654   -2.7469 H        14   A    0.4186
    463 P          44.5690   41.4730   -1.1660 P.3      15   G    1.1662
    464 OP1        44.9770   40.8830   -2.4630 O.co2    15   G   -0.7760
    465 OP2        45.0670   40.8810    0.0910 O.co2    15   G   -0.7760
    466 O5'        44.9660   43.0150   -1.1610 O.3      15   G   -0.4989
    467 C5'        46.0190   43.4690   -1.9740 C.3      15   G    0.0558
    468 C4'        46.2130   44.9510   -1.7700 C.3      15   G    0.1065
    469 O4'        45.0880   45.5410   -1.0590 O.3      15   G   -0.3548
    470 C3'        47.3910   45.2690   -0.8900 C.3      15   G    0.2022
    471 O3'        48.5460   45.1990   -1.6470 O.3      15   G   -0.5246
    472 C2'        47.0580   46.6820   -0.4610 C.3      15   G    0.0670
    473 O2'        47.2090   47.6110   -1.5140 O.3      15   G   -0.6139
    474 C1'        45.5850   46.4780   -0.1090 C.3      15   G    0.0191
    475 N9         45.4170   45.9340    1.2430 N.ar     15   G    0.0492
    476 C8         44.8950   44.7060    1.5790 C.ar     15   G    0.1374
    477 N7         44.8850   44.4680    2.8600 N.ar     15   G   -0.5709
    478 C5         45.4490   45.6090    3.4200 C.ar     15   G    0.1744
    479 C6         45.6950   45.9300    4.7800 C.2      15   G    0.4770
    480 O6         45.4560   45.2320    5.7750 O.2      15   G   -0.5597
    481 N1         46.2830   47.1890    4.9300 N.am     15   G   -0.4787
    482 C2         46.5910   48.0310    3.8860 C.2      15   G    0.7657
    483 N2         47.1560   49.1990    4.2090 N.pl3    15   G   -0.9672
    484 N3         46.3660   47.7440    2.6070 N.2      15   G   -0.6323
    485 C4         45.7920   46.5200    2.4410 C.ar     15   G    0.1222
    486 H5'        46.9358   42.9432   -1.7073 H        15   G    0.0679
    487 H5''       45.7801   43.2747   -3.0196 H        15   G    0.0679
    488 H4'        46.3340   45.4413   -2.7360 H        15   G    0.1174
    489 H3'        47.4380   44.5963   -0.0336 H        15   G    0.0615
    490 H2'        47.6372   46.9773    0.4139 H        15   G    0.0972
    491 H1'        45.0466   47.4213   -0.2001 H        15   G    0.2006
    492 H8         44.5267   44.0027    0.8468 H        15   G    0.1640
    493 H1         46.4959   47.5015    5.8665 H        15   G    0.3424
    494 H21        47.3326   49.4238    5.1777 H        15   G    0.4364
    495 H22        47.4062   49.8565    3.4843 H        15   G    0.4364
    496 HO2'       48.1416   47.7198   -1.7141 H        15   G    0.4186
    497 P          49.6580   44.1480   -1.2010 P.3      16   G    1.1662
    498 OP1        50.4170   43.7620   -2.4110 O.co2    16   G   -0.7760
    499 OP2        49.0040   43.0990   -0.3860 O.co2    16   G   -0.7760
    500 O5'        50.5780   45.0270   -0.2310 O.3      16   G   -0.4989
    501 C5'        50.8510   46.3860   -0.5690 C.3      16   G    0.0558
    502 C4'        51.0580   47.2590    0.6590 C.3      16   G    0.1065
    503 O4'        49.8200   47.4690    1.3900 O.3      16   G   -0.3548
    504 C3'        51.9610   46.7200    1.7520 C.3      16   G    0.2022
    505 O3'        53.3100   46.7240    1.3700 O.3      16   G   -0.5246
    506 C2'        51.6800   47.7770    2.8030 C.3      16   G    0.0670
    507 O2'        52.1940   49.0450    2.4560 O.3      16   G   -0.6139
    508 C1'        50.1620   47.7950    2.7330 C.3      16   G    0.0191
    509 N9         49.5950   46.8280    3.6660 N.ar     16   G    0.0492
    510 C8         48.9770   45.6400    3.3710 C.ar     16   G    0.1374
    511 N7         48.5930   44.9820    4.4290 N.ar     16   G   -0.5709
    512 C5         48.9890   45.7800    5.4950 C.ar     16   G    0.1744
    513 C6         48.8380   45.5870    6.8910 C.2      16   G    0.4770
    514 O6         48.3170   44.6330    7.4760 O.2      16   G   -0.5597
    515 N1         49.3880   46.6360    7.6260 N.am     16   G   -0.4787
    516 C2         50.0050   47.7410    7.0790 C.2      16   G    0.7657
    517 N2         50.4670   48.6550    7.9390 N.pl3    16   G   -0.9672
    518 N3         50.1490   47.9380    5.7730 N.2      16   G   -0.6323
    519 C4         49.6170   46.9190    5.0420 C.ar     16   G    0.1222
    520 H5'        51.7538   46.4203   -1.1788 H        16   G    0.0679
    521 H5''       50.0168   46.7815   -1.1484 H        16   G    0.0679
    522 H4'        51.4409   48.2275    0.3371 H        16   G    0.1174
    523 H3'        51.6420   45.7318    2.0833 H        16   G    0.0615
    524 H2'        52.0289   47.4622    3.7865 H        16   G    0.0972
    525 H1'        49.7959   48.7934    2.9724 H        16   G    0.2006
    526 H8         48.8236   45.2848    2.3627 H        16   G    0.1640
    527 H1         49.3303   46.5827    8.6329 H        16   G    0.3424
    528 H21        50.3580   48.5136    8.9331 H        16   G    0.4364
    529 H22        50.9249   49.4867    7.5944 H        16   G    0.4364
    530 HO2'       53.1527   49.0258    2.5025 H        16   G    0.4186
    531 P          54.3350   45.7980    2.1700 P.3      17   G    1.1662
    532 OP1        55.6650   45.9590    1.5380 O.co2    17   G   -0.7760
    533 OP2        53.7230   44.4570    2.3110 O.co2    17   G   -0.7760
    534 O5'        54.3870   46.4530    3.6270 O.3      17   G   -0.4989
    535 C5'        55.0860   47.6740    3.8500 C.3      17   G    0.0558
    536 C4'        55.2020   47.9440    5.3370 C.3      17   G    0.1065
    537 O4'        53.8840   47.9990    5.9390 O.3      17   G   -0.3548
    538 C3'        55.9170   46.8600    6.1250 C.3      17   G    0.2022
    539 O3'        57.3240   47.0150    6.0140 O.3      17   G   -0.5246
    540 C2'        55.4070   47.1450    7.5320 C.3      17   G    0.0670
    541 O2'        56.0450   48.2400    8.1470 O.3      17   G   -0.6139
    542 C1'        53.9510   47.4900    7.2600 C.3      17   G    0.0191
    543 N9         53.0910   46.3170    7.4070 N.ar     17   G    0.0492
    544 C8         52.5000   45.5660    6.4190 C.ar     17   G    0.1374
    545 N7         51.8030   44.5610    6.8770 N.ar     17   G   -0.5709
    546 C5         51.9460   44.6470    8.2560 C.ar     17   G    0.1744
    547 C6         51.4180   43.8330    9.2910 C.2      17   G    0.4770
    548 O6         50.6900   42.8380    9.1860 O.2      17   G   -0.5597
    549 N1         51.8130   44.2690   10.5560 N.am     17   G   -0.4787
    550 C2         52.6150   45.3610   10.7900 C.2      17   G    0.7657
    551 N2         52.8920   45.6370   12.0690 N.pl3    17   G   -0.9672
    552 N3         53.1100   46.1340    9.8340 N.2      17   G   -0.6323
    553 C4         52.7370   45.7210    8.5960 C.ar     17   G    0.1222
    554 H5'        54.5428   48.4918    3.3766 H        17   G    0.0679
    555 H5''       56.0836   47.6038    3.4164 H        17   G    0.0679
    556 H4'        55.7091   48.8963    5.4920 H        17   G    0.1174
    557 H3'        55.6075   45.8692    5.7924 H        17   G    0.0615
    558 H2'        55.4819   46.2549    8.1566 H        17   G    0.0972
    559 H1'        53.6283   48.2617    7.9589 H        17   G    0.2006
    560 H8         52.6021   45.7856    5.3665 H        17   G    0.1640
    561 H1         51.4870   43.7458   11.3560 H        17   G    0.3424
    562 H21        52.5178   45.0539   12.8039 H        17   G    0.4364
    563 H22        53.4754   46.4285   12.2999 H        17   G    0.4364
    564 HO2'       56.0011   49.0031    7.5662 H        17   G    0.4186
    565 P          58.2930   45.7580    6.2230 P.3      18   U    1.1662
    566 OP1        59.6630   46.1970    5.8830 O.co2    18   U   -0.7760
    567 OP2        57.6970   44.5740    5.5610 O.co2    18   U   -0.7760
    568 O5'        58.2020   45.4960    7.7980 O.3      18   U   -0.4989
    569 C5'        58.8430   46.3710    8.7310 C.3      18   U    0.0558
    570 C4'        58.4650   45.9940   10.1510 C.3      18   U    0.1065
    571 O4'        57.0210   45.9720   10.2980 O.3      18   U   -0.3548
    572 C3'        58.8610   44.5880   10.5540 C.3      18   U    0.2022
    573 O3'        60.2210   44.5200   10.8760 O.3      18   U   -0.5246
    574 C2'        57.9620   44.3560   11.7560 C.3      18   U    0.0670
    575 O2'        58.4030   45.0330   12.9140 O.3      18   U   -0.6139
    576 C1'        56.6650   44.9780   11.2480 C.3      18   U    0.0674
    577 N1         55.7670   43.9710   10.6150 N.am     18   U    0.0418
    578 C2         55.1130   43.0580   11.4180 C.2      18   U    0.4687
    579 O2         55.2230   43.0330   12.6290 O.2      18   U   -0.5477
    580 N3         54.3130   42.1650   10.7500 N.am     18   U   -0.3549
    581 C4         54.1040   42.0950    9.3850 C.2      18   U    0.5952
    582 O4         53.3450   41.2460    8.9290 O.2      18   U   -0.5761
    583 C5         54.8260   43.0730    8.6120 C.2      18   U   -0.3635
    584 C6         55.6150   43.9530    9.2410 C.2      18   U   -0.1126
    585 H5'        59.9238   46.2922    8.6137 H        18   U    0.0679
    586 H5''       58.5326   47.3974    8.5352 H        18   U    0.0679
    587 H4'        58.8951   46.7119   10.8493 H        18   U    0.1174
    588 H3'        58.6224   43.8824    9.7582 H        18   U    0.0615
    589 H2'        57.8353   43.2909   11.9500 H        18   U    0.0972
    590 H1'        56.1435   45.4493   12.0811 H        18   U    0.1824
    591 H3         53.8245   41.4861   11.3163 H        18   U    0.3154
    592 H5         54.7318   43.0961    7.5364 H        18   U    0.1811
    593 H6         56.1549   44.6786    8.6508 H        18   U    0.2188
    594 HO2'       59.2190   44.6353   13.2265 H        18   U    0.4186
    595 P          61.1170   43.4750   10.0690 P.3      19   G    1.1662
    596 OP1        62.5390   43.8760   10.2050 O.co2    19   G   -0.7760
    597 OP2        60.5100   43.3260    8.7290 O.co2    19   G   -0.7760
    598 O5'        60.8900   42.1010   10.8530 O.3      19   G   -0.4989
    599 C5'        61.2140   42.0000   12.2320 C.3      19   G    0.0558
    600 C4'        60.3530   40.9440   12.8900 C.3      19   G    0.1065
    601 O4'        58.9550   41.2610   12.6810 O.3      19   G   -0.3548
    602 C3'        60.4720   39.5620   12.2830 C.3      19   G    0.2022
    603 O3'        61.6650   38.9120   12.6890 O.3      19   G   -0.5246
    604 C2'        59.2140   38.9200   12.8440 C.3      19   G    0.0670
    605 O2'        59.3370   38.6190   14.2180 O.3      19   G   -0.6139
    606 C1'        58.2110   40.0540   12.6250 C.3      19   G    0.0191
    607 N9         57.5570   39.9550   11.3220 N.ar     19   G    0.0492
    608 C8         57.9410   40.5790   10.1570 C.ar     19   G    0.1374
    609 N7         57.1830   40.2890    9.1370 N.ar     19   G   -0.5709
    610 C5         56.2420   39.4110    9.6500 C.ar     19   G    0.1744
    611 C6         55.1670   38.7600    9.0070 C.2      19   G    0.4770
    612 O6         54.8270   38.8450    7.8170 O.2      19   G   -0.5597
    613 N1         54.4430   37.9550    9.8880 N.am     19   G   -0.4787
    614 C2         54.7280   37.7970   11.2200 C.2      19   G    0.7657
    615 N2         53.9220   36.9750   11.9040 N.pl3    19   G   -0.9672
    616 N3         55.7390   38.3990   11.8350 N.2      19   G   -0.6323
    617 C4         56.4540   39.1910   10.9930 C.ar     19   G    0.1222
    618 H5'        62.2639   41.7263   12.3369 H        19   G    0.0679
    619 H5''       61.0406   42.9613   12.7158 H        19   G    0.0679
    620 H4'        60.5687   40.9008   13.9576 H        19   G    0.1174
    621 H3'        60.4192   39.6175   11.1957 H        19   G    0.0615
    622 H2'        58.9365   38.0348   12.2717 H        19   G    0.0972
    623 H1'        57.4620   40.0438   13.4168 H        19   G    0.2006
    624 H8         58.7889   41.2450   10.0940 H        19   G    0.1640
    625 H1         53.6501   37.4514    9.5167 H        19   G    0.3424
    626 H21        53.1545   36.5150   11.4355 H        19   G    0.4364
    627 H22        54.0816   36.8150   12.8884 H        19   G    0.4364
    628 HO2'       59.9696   37.9064   14.3346 H        19   G    0.4186
    629 P          62.5760   38.2130   11.5690 P.3      20   A    1.1662
    630 OP1        63.9520   38.0600   12.0970 O.co2    20   A   -0.7760
    631 OP2        62.3590   38.9510   10.3060 O.co2    20   A   -0.7760
    632 O5'        61.8930   36.7660   11.4350 O.3      20   A   -0.4989
    633 C5'        62.4140   35.7790   10.5330 C.3      20   A    0.0558
    634 C4'        61.6250   34.4750   10.6000 C.3      20   A    0.1065
    635 O4'        62.0050   33.7520   11.7980 O.3      20   A   -0.3548
    636 C3'        60.1040   34.6120   10.6760 C.3      20   A    0.2022
    637 O3'        59.5110   34.5850    9.3810 O.3      20   A   -0.5246
    638 C2'        59.6720   33.4120   11.5160 C.3      20   A    0.0670
    639 O2'        59.4650   32.2360   10.7600 O.3      20   A   -0.6139
    640 C1'        60.8560   33.2330   12.4510 C.3      20   A    0.0394
    641 N9         60.6790   33.8960   13.7410 N.ar     20   A   -0.0251
    642 C8         61.2180   35.0870   14.1430 C.ar     20   A    0.2006
    643 N7         60.8930   35.4300   15.3670 N.ar     20   A   -0.6073
    644 C5         60.0790   34.3940   15.7980 C.ar     20   A    0.0515
    645 C6         59.4070   34.1550   17.0160 C.ar     20   A    0.7009
    646 N6         59.4540   34.9940   18.0570 N.pl3    20   A   -0.9019
    647 N1         58.6780   33.0200   17.1190 N.ar     20   A   -0.7615
    648 C2         58.6300   32.1810   16.0720 C.ar     20   A    0.5875
    649 N3         59.2170   32.2990   14.8790 N.ar     20   A   -0.6997
    650 C4         59.9350   33.4380   14.8060 C.ar     20   A    0.3053
    651 H5'        62.3640   36.1693    9.5165 H        20   A    0.0679
    652 H5''       63.4550   35.5788   10.7868 H        20   A    0.0679
    653 H4'        61.8782   33.8683    9.7306 H        20   A    0.1174
    654 H3'        59.8393   35.5378   11.1868 H        20   A    0.0615
    655 H2'        58.7756   33.6552   12.0864 H        20   A    0.0972
    656 H1'        61.0052   32.1673   12.6244 H        20   A    0.2007
    657 H8         61.8530   35.6899   13.5108 H        20   A    0.1553
    658 H2         58.0362   31.2902   16.2142 H        20   A    0.0473
    659 H61        59.9919   35.8465   17.9946 H        20   A    0.4115
    660 H62        58.9515   34.7749   18.9053 H        20   A    0.4115
    661 HO2'       59.2891   31.5016   11.3527 H        20   A    0.4186
    662 P          58.2550   35.5270    9.0900 P.3      21   A    1.1662
    663 OP1        57.9430   35.4600    7.6450 O.co2    21   A   -0.7760
    664 OP2        58.5410   36.8330    9.7210 O.co2    21   A   -0.7760
    665 O5'        57.0670   34.8360    9.9090 O.3      21   A   -0.4989
    666 C5'        56.6340   33.5140    9.5990 C.3      21   A    0.0558
    667 C4'        55.8480   32.9150   10.7540 C.3      21   A    0.1065
    668 O4'        56.6570   32.8820   11.9550 O.3      21   A   -0.3548
    669 C3'        54.6120   33.6960   11.1580 C.3      21   A    0.2022
    670 O3'        53.5100   33.2840   10.3800 O.3      21   A   -0.5246
    671 C2'        54.4220   33.3120   12.6210 C.3      21   A    0.0670
    672 O2'        53.6430   32.1420   12.7790 O.3      21   A   -0.6139
    673 C1'        55.8520   33.0850   13.1000 C.3      21   A    0.0394
    674 N9         56.3690   34.2300   13.8460 N.ar     21   A   -0.0251
    675 C8         57.1120   35.2720   13.3590 C.ar     21   A    0.2006
    676 N7         57.4260   36.1700   14.2630 N.ar     21   A   -0.6073
    677 C5         56.8410   35.6880   15.4250 C.ar     21   A    0.0515
    678 C6         56.8010   36.1740   16.7530 C.ar     21   A    0.7009
    679 N6         57.3910   37.3090   17.1450 N.pl3    21   A   -0.9019
    680 N1         56.1280   35.4430   17.6720 N.ar     21   A   -0.7615
    681 C2         55.5350   34.3030   17.2920 C.ar     21   A    0.5875
    682 N3         55.5080   33.7460   16.0820 N.ar     21   A   -0.6997
    683 C4         56.1820   34.4930   15.1840 C.ar     21   A    0.3053
    684 H5'        57.5058   32.8908    9.3997 H        21   A    0.0679
    685 H5''       56.0022   33.5421    8.7112 H        21   A    0.0679
    686 H4'        55.5559   31.8974   10.4947 H        21   A    0.1174
    687 H3'        54.7798   34.7682   11.0566 H        21   A    0.0615
    688 H2'        53.9706   34.1389   13.1693 H        21   A    0.0972
    689 H1'        55.8867   32.1961   13.7299 H        21   A    0.2007
    690 H8         57.4125   35.3480   12.3244 H        21   A    0.1553
    691 H2         55.0104   33.7655   18.0680 H        21   A    0.0473
    692 H61        57.8995   37.8707   16.4771 H        21   A    0.4115
    693 H62        57.3279   37.6042   18.1088 H        21   A    0.4115
    694 HO2'       52.7489   32.3084   12.4716 H        21   A    0.4186
    695 P          52.5090   34.3940    9.8380 P.3      22   A    1.1662
    696 OP1        51.3700   33.7070    9.1800 O.co2    22   A   -0.7760
    697 OP2        53.3330   35.3740    9.0960 O.co2    22   A   -0.7760
    698 O5'        51.9750   35.1010   11.1750 O.3      22   A   -0.4989
    699 C5'        50.9400   34.4890   11.9550 C.3      22   A    0.0558
    700 C4'        49.9590   35.5160   12.4990 C.3      22   A    0.1065
    701 O4'        50.6760   36.5470   13.2020 O.3      22   A   -0.3548
    702 C3'        49.1430   36.2400   11.4440 C.3      22   A    0.2022
    703 O3'        47.8320   35.6880   11.4170 O.3      22   A   -0.5246
    704 C2'        49.1270   37.7120   11.8760 C.3      22   A    0.0670
    705 O2'        47.8190   38.1800   12.1240 O.3      22   A   -0.6139
    706 C1'        49.9370   37.7430   13.1650 C.3      22   A    0.0394
    707 N9         50.8990   38.8410   13.2580 N.ar     22   A   -0.0251
    708 C8         51.6780   39.3590   12.2550 C.ar     22   A    0.2006
    709 N7         52.4690   40.3300   12.6420 N.ar     22   A   -0.6073
    710 C5         52.2030   40.4520   13.9940 C.ar     22   A    0.0515
    711 C6         52.7130   41.3070   14.9890 C.ar     22   A    0.7009
    712 N6         53.6350   42.2380   14.7450 N.pl3    22   A   -0.9019
    713 N1         52.2350   41.1780   16.2480 N.ar     22   A   -0.7615
    714 C2         51.2980   40.2490   16.4960 C.ar     22   A    0.5875
    715 N3         50.7420   39.3850   15.6440 N.ar     22   A   -0.6997
    716 C4         51.2430   39.5400   14.3960 C.ar     22   A    0.3053
    717 H5'        50.3978   33.7813   11.3279 H        22   A    0.0679
    718 H5''       51.3925   33.9522   12.7887 H        22   A    0.0679
    719 H4'        49.2795   35.0220   13.1935 H        22   A    0.1174
    720 H3'        49.6151   36.1388   10.4668 H        22   A    0.0615
    721 H2'        49.6076   38.3297   11.1173 H        22   A    0.0972
    722 H1'        49.2604   37.7790   14.0189 H        22   A    0.2007
    723 H8         51.6428   38.9991   11.2374 H        22   A    0.1553
    724 H2         50.9491   40.1936   17.5166 H        22   A    0.0473
    725 H61        54.0023   42.3524   13.8112 H        22   A    0.4115
    726 H62        53.9664   42.8291   15.4939 H        22   A    0.4115
    727 HO2'       47.3968   37.6192   12.7789 H        22   A    0.4186
    728 P          47.3150   34.8670   10.1420 P.3      23   U    1.1662
    729 OP1        46.5350   33.7060   10.6350 O.co2    23   U   -0.7760
    730 OP2        48.4660   34.6620    9.2180 O.co2    23   U   -0.7760
    731 O5'        46.2810   35.8880    9.4740 O.3      23   U   -0.4989
    732 C5'        46.7440   37.1320    8.9820 C.3      23   U    0.0558
    733 C4'        45.5650   38.0340    8.7220 C.3      23   U    0.1065
    734 O4'        44.6640   37.3510    7.8220 O.3      23   U   -0.3548
    735 C3'        44.7430   38.3560    9.9650 C.3      23   U    0.2022
    736 O3'        44.6710   39.7620   10.1570 O.3      23   U   -0.5246
    737 C2'        43.3710   37.7780    9.6740 C.3      23   U    0.0670
    738 O2'        42.3680   38.6490   10.1090 O.3      23   U   -0.6139
    739 C1'        43.3520   37.7130    8.1590 C.3      23   U    0.0674
    740 N1         42.4280   36.6670    7.6640 N.am     23   U    0.0418
    741 C2         41.1840   37.0320    7.1840 C.2      23   U    0.4687
    742 O2         40.7980   38.1860    7.1090 O.2      23   U   -0.5477
    743 N3         40.3970   35.9870    6.7800 N.am     23   U   -0.3549
    744 C4         40.7260   34.6460    6.8090 C.2      23   U    0.5952
    745 O4         39.9110   33.8250    6.4090 O.2      23   U   -0.5761
    746 C5         42.0320   34.3360    7.3250 C.2      23   U   -0.3635
    747 C6         42.8150   35.3380    7.7300 C.2      23   U   -0.1126
    748 H5'        47.2937   36.9747    8.0540 H        23   U    0.0679
    749 H5''       47.4000   37.5939    9.7199 H        23   U    0.0679
    750 H4'        45.9085   38.9603    8.2614 H        23   U    0.1174
    751 H3'        45.1780   37.8759   10.8415 H        23   U    0.0615
    752 H2'        43.2557   36.7880   10.1152 H        23   U    0.0972
    753 H1'        43.0985   38.6843    7.7342 H        23   U    0.1824
    754 H3         39.4812   36.2210    6.4240 H        23   U    0.3154
    755 H5         42.3724   33.3127    7.3836 H        23   U    0.1811
    756 H6         43.7919   35.1031    8.1261 H        23   U    0.2188
    757 HO2'       42.3760   38.6936   11.0679 H        23   U    0.4186
    758 P          45.5890   40.4270   11.2780 P.3      24   U    1.1662
    759 OP1        45.3300   41.8850   11.3360 O.co2    24   U   -0.7760
    760 OP2        46.9790   39.9520   11.0950 O.co2    24   U   -0.7760
    761 O5'        44.9920   39.7050   12.5630 O.3      24   U   -0.4989
    762 C5'        43.6900   40.0190   13.0250 C.3      24   U    0.0558
    763 C4'        43.6880   39.9490   14.5380 C.3      24   U    0.1065
    764 O4'        43.8350   38.5630   14.9510 O.3      24   U   -0.3548
    765 C3'        44.8270   40.7260   15.2040 C.3      24   U    0.2022
    766 O3'        44.3360   41.3450   16.3740 O.3      24   U   -0.5246
    767 C2'        45.8160   39.6290   15.5490 C.3      24   U    0.0670
    768 O2'        46.6110   39.9730   16.6570 O.3      24   U   -0.6139
    769 C1'        44.8590   38.4960   15.9080 C.3      24   U    0.0674
    770 N1         45.4960   37.1660   15.8700 N.am     24   U    0.0418
    771 C2         45.6140   36.4520   17.0390 C.2      24   U    0.4687
    772 O2         45.1780   36.8450   18.1000 O.2      24   U   -0.5477
    773 N3         46.2450   35.2360   16.9220 N.am     24   U   -0.3549
    774 C4         46.7830   34.6790   15.7760 C.2      24   U    0.5952
    775 O4         47.3320   33.5800   15.8210 O.2      24   U   -0.5761
    776 C5         46.6280   35.4950   14.5970 C.2      24   U   -0.3635
    777 C6         46.0060   36.6800   14.6860 C.2      24   U   -0.1126
    778 H5'        42.9743   39.3020   12.6228 H        24   U    0.0679
    779 H5''       43.4202   41.0252   12.7044 H        24   U    0.0679
    780 H4'        42.7361   40.3295   14.9085 H        24   U    0.1174
    781 H3'        45.2636   41.4551   14.5214 H        24   U    0.0615
    782 H2'        46.4313   39.3677   14.6881 H        24   U    0.0972
    783 H1'        44.4424   38.6719   16.8998 H        24   U    0.1824
    784 H3         46.3245   34.6885   17.7670 H        24   U    0.3154
    785 H5         47.0110   35.1534   13.6467 H        24   U    0.1811
    786 H6         45.9006   37.2778   13.7927 H        24   U    0.2188
    787 HO2'       47.3519   39.3658   16.7201 H        24   U    0.4186
    788 P          44.7190   42.8470   16.7710 P.3      25   C    1.1662
    789 OP1        44.1020   43.0750   18.1020 O.co2    25   C   -0.7760
    790 OP2        44.3990   43.7550   15.6430 O.co2    25   C   -0.7760
    791 O5'        46.3140   42.8120   16.9470 O.3      25   C   -0.4989
    792 C5'        46.8720   43.2040   18.1870 C.3      25   C    0.0558
    793 C4'        48.1900   43.9330   18.0240 C.3      25   C    0.1065
    794 O4'        49.1830   43.0300   17.4760 O.3      25   C   -0.3548
    795 C3'        48.1880   45.1290   17.0860 C.3      25   C    0.2022
    796 O3'        47.8330   46.3060   17.7780 O.3      25   C   -0.5246
    797 C2'        49.6520   45.2050   16.7010 C.3      25   C    0.0670
    798 O2'        50.3960   45.8200   17.7240 O.3      25   C   -0.6139
    799 C1'        50.0120   43.7280   16.5630 C.3      25   C    0.0066
    800 N1         49.7730   43.1760   15.1780 N.am     25   C   -0.0484
    801 C2         50.6450   43.5050   14.1240 C.2      25   C    0.7538
    802 O2         51.6110   44.2470   14.3470 O.2      25   C   -0.6252
    803 N3         50.4010   42.9890   12.8850 N.2      25   C   -0.7584
    804 C4         49.3460   42.1850   12.6890 C.2      25   C    0.8185
    805 N4         49.1330   41.7000   11.4650 N.pl3    25   C   -0.9530
    806 C5         48.4550   41.8380   13.7460 C.2      25   C   -0.5215
    807 C6         48.7020   42.3520   14.9550 C.2      25   C    0.0053
    808 H5'        46.1680   43.8636   18.6944 H        25   C    0.0679
    809 H5''       47.0312   42.3169   18.8001 H        25   C    0.0679
    810 H4'        48.5269   44.2637   19.0065 H        25   C    0.1174
    811 H3'        47.5497   44.9617   16.2184 H        25   C    0.0615
    812 H2'        49.7809   45.7293   15.7541 H        25   C    0.0972
    813 H1'        51.0569   43.5819   16.8367 H        25   C    0.2029
    814 H5         47.6121   41.1844   13.5765 H        25   C    0.1928
    815 H6         48.0416   42.1119   15.7751 H        25   C    0.1958
    816 H41        49.7597   41.9406   10.7103 H        25   C    0.4234
    817 H42        48.3450   41.0921   11.2927 H        25   C    0.4234
    818 HO2'       51.3202   45.8616   17.4675 H        25   C    0.4186
    819 P          47.0600   47.4710   16.9990 P.3      26   C    1.1662
    820 OP1        46.8050   48.5810   17.9510 O.co2    26   C   -0.7760
    821 OP2        45.9290   46.8420   16.2630 O.co2    26   C   -0.7760
    822 O5'        48.1770   47.9740   15.9660 O.3      26   C   -0.4989
    823 C5'        49.2230   48.8050   16.4290 C.3      26   C    0.0558
    824 C4'        50.0430   49.3270   15.2720 C.3      26   C    0.1065
    825 O4'        50.7590   48.2310   14.6410 O.3      26   C   -0.3548
    826 C3'        49.2450   49.9460   14.1360 C.3      26   C    0.2022
    827 O3'        48.8910   51.2790   14.4300 O.3      26   C   -0.5246
    828 C2'        50.2560   49.8470   13.0000 C.3      26   C    0.0670
    829 O2'        51.2960   50.8050   13.0800 O.3      26   C   -0.6139
    830 C1'        50.8050   48.4420   13.2380 C.3      26   C    0.0066
    831 N1         49.9810   47.4040   12.5540 N.am     26   C   -0.0484
    832 C2         50.0100   47.2920   11.1550 C.2      26   C    0.7538
    833 O2         50.7420   48.0350   10.4950 O.2      26   C   -0.6252
    834 N3         49.2360   46.3530   10.5520 N.2      26   C   -0.7584
    835 C4         48.4590   45.5590   11.2840 C.2      26   C    0.8185
    836 N4         47.7190   44.6560   10.6450 N.pl3    26   C   -0.9530
    837 C5         48.4050   45.6620   12.7060 C.2      26   C   -0.5215
    838 C6         49.1730   46.5870   13.2900 C.2      26   C    0.0053
    839 H5'        49.8680   48.2309   17.0942 H        26   C    0.0679
    840 H5''       48.7984   49.6460   16.9772 H        26   C    0.0679
    841 H4'        50.7619   50.0572   15.6436 H        26   C    0.1174
    842 H3'        48.3588   49.3503   13.9173 H        26   C    0.0615
    843 H2'        49.7546   49.9046   12.0339 H        26   C    0.0972
    844 H1'        51.8361   48.3842   12.8893 H        26   C    0.2029
    845 H5         47.7663   45.0156   13.2897 H        26   C    0.1928
    846 H6         49.1537   46.6898   14.3649 H        26   C    0.1958
    847 H41        47.7609   44.5899    9.6380 H        26   C    0.4234
    848 H42        47.1155   44.0368   11.1670 H        26   C    0.4234
    849 HO2'       50.9362   51.6820   12.9285 H        26   C    0.4186
    850 P          47.4600   51.8300   13.9710 P.3      27   C    1.1662
    851 OP1        47.2170   53.1050   14.6800 O.co2    27   C   -0.7760
    852 OP2        46.4750   50.7270   14.0580 O.co2    27   C   -0.7760
    853 O5'        47.6770   52.1590   12.4250 O.3      27   C   -0.4989
    854 C5'        48.6670   53.0980   12.0150 C.3      27   C    0.0558
    855 C4'        48.5750   53.3090   10.5170 C.3      27   C    0.1065
    856 O4'        49.1640   52.1710    9.8310 O.3      27   C   -0.3548
    857 C3'        47.1550   53.3840    9.9700 C.3      27   C    0.2022
    858 O3'        46.6270   54.6970   10.1030 O.3      27   C   -0.5246
    859 C2'        47.3850   52.9930    8.5150 C.3      27   C    0.0670
    860 O2'        47.9220   54.0490    7.7440 O.3      27   C   -0.6139
    861 C1'        48.4090   51.8730    8.6660 C.3      27   C    0.0066
    862 N1         47.7730   50.5140    8.7700 N.am     27   C   -0.0484
    863 C2         47.4520   49.8110    7.5940 C.2      27   C    0.7538
    864 O2         47.7180   50.3140    6.4970 O.2      27   C   -0.6252
    865 N3         46.8660   48.5860    7.6890 N.2      27   C   -0.7584
    866 C4         46.5950   48.0730    8.8900 C.2      27   C    0.8185
    867 N4         46.0180   46.8720    8.9380 N.pl3    27   C   -0.9530
    868 C5         46.9040   48.7720   10.0960 C.2      27   C   -0.5215
    869 C6         47.4830   49.9740    9.9920 C.2      27   C    0.0053
    870 H5'        49.6562   52.7163   12.2678 H        27   C    0.0679
    871 H5''       48.5020   54.0464   12.5263 H        27   C    0.0679
    872 H4'        49.1161   54.2153   10.2451 H        27   C    0.1174
    873 H3'        46.5118   52.6579   10.4671 H        27   C    0.0615
    874 H2'        46.4654   52.6170    8.0666 H        27   C    0.0972
    875 H1'        49.0742   51.8853    7.8026 H        27   C    0.2029
    876 H5         46.6777   48.3443   11.0615 H        27   C    0.1928
    877 H6         47.7251   50.5264   10.8879 H        27   C    0.1958
    878 H41        45.8009   46.3815    8.0822 H        27   C    0.4234
    879 H42        45.7980   46.4527    9.8301 H        27   C    0.4234
    880 HO2'       47.2683   54.7466    7.6566 H        27   C    0.4186
    881 P          45.0720   54.9820    9.8520 P.3      28   G    1.1662
    882 OP1        44.9590   56.3700    9.3470 O.co2    28   G   -0.7760
    883 OP2        44.3010   54.5560   11.0470 O.co2    28   G   -0.7760
    884 O5'        44.7060   53.9500    8.6900 O.3      28   G   -0.4989
    885 C5'        43.9230   54.3290    7.5780 C.3      28   G    0.0558
    886 C4'        43.8760   53.1810    6.5910 C.3      28   G    0.1065
    887 O4'        44.7440   52.0940    7.0240 O.3      28   G   -0.3548
    888 C3'        42.5120   52.5330    6.4460 C.3      28   G    0.2022
    889 O3'        41.7170   53.2740    5.5390 O.3      28   G   -0.5246
    890 C2'        42.9190   51.1880    5.8660 C.3      28   G    0.0670
    891 O2'        43.2910   51.2940    4.5070 O.3      28   G   -0.6139
    892 C1'        44.1330   50.8510    6.7270 C.3      28   G    0.0191
    893 N9         43.7600   50.1620    7.9670 N.ar     28   G    0.0492
    894 C8         43.7800   50.6770    9.2400 C.ar     28   G    0.1374
    895 N7         43.3710   49.8370   10.1520 N.ar     28   G   -0.5709
    896 C5         43.0450   48.6860    9.4450 C.ar     28   G    0.1744
    897 C6         42.5420   47.4360    9.9040 C.2      28   G    0.4770
    898 O6         42.2780   47.0840   11.0690 O.2      28   G   -0.5597
    899 N1         42.3490   46.5430    8.8480 N.am     28   G   -0.4787
    900 C2         42.6150   46.8210    7.5240 C.2      28   G    0.7657
    901 N2         42.3680   45.8410    6.6430 N.pl3    28   G   -0.9672
    902 N3         43.0840   47.9830    7.0890 N.2      28   G   -0.6323
    903 C4         43.2760   48.8710    8.0960 C.ar     28   G    0.1222
    904 H5'        42.9121   54.5681    7.9080 H        28   G    0.0679
    905 H5''       44.3668   55.2025    7.1004 H        28   G    0.0679
    906 H4'        44.2080   53.5356    5.6152 H        28   G    0.1174
    907 H3'        42.0181   52.4198    7.4110 H        28   G    0.0615
    908 H2'        42.1283   50.4495    5.9986 H        28   G    0.0972
    909 H1'        44.8246   50.2302    6.1573 H        28   G    0.2006
    910 H8         44.1036   51.6824    9.4655 H        28   G    0.1640
    911 H1         41.9881   45.6263    9.0704 H        28   G    0.3424
    912 H21        42.0081   44.9532    6.9629 H        28   G    0.4364
    913 H22        42.5418   45.9906    5.6594 H        28   G    0.4364
    914 HO2'       43.1597   50.4484    4.0719 H        28   G    0.4186
    915 P          40.1200   53.1850    5.5940 P.3      29   A    1.1662
    916 OP1        39.5900   54.0720    4.5370 O.co2    29   A   -0.7760
    917 OP2        39.6840   53.3920    6.9910 O.co2    29   A   -0.7760
    918 O5'        39.8200   51.6590    5.2080 O.3      29   A   -0.4989
    919 C5'        40.0720   51.2000    3.8890 C.3      29   A    0.0558
    920 C4'        39.5910   49.7780    3.6740 C.3      29   A    0.1065
    921 O4'        40.3730   48.8640    4.4810 O.3      29   A   -0.3548
    922 C3'        38.1450   49.4960    4.0540 C.3      29   A    0.2022
    923 O3'        37.2500   49.8990    3.0310 O.3      29   A   -0.5246
    924 C2'        38.1870   47.9830    4.2140 C.3      29   A    0.0670
    925 O2'        38.1120   47.2800    2.9900 O.3      29   A   -0.6139
    926 C1'        39.5490   47.7780    4.8740 C.3      29   A    0.0394
    927 N9         39.4680   47.7230    6.3380 N.ar     29   A   -0.0251
    928 C8         39.9260   48.6540    7.2310 C.ar     29   A    0.2006
    929 N7         39.7200   48.3290    8.4840 N.ar     29   A   -0.6073
    930 C5         39.0710   47.1050    8.4130 C.ar     29   A    0.0515
    931 C6         38.5730   46.2210    9.3980 C.ar     29   A    0.7009
    932 N6         38.6530   46.4610   10.7070 N.pl3    29   A   -0.9019
    933 N1         37.9810   45.0750    8.9900 N.ar     29   A   -0.7615
    934 C2         37.8960   44.8320    7.6790 C.ar     29   A    0.5875
    935 N3         38.3280   45.5850    6.6630 N.ar     29   A   -0.6997
    936 C4         38.9090   46.7180    7.0980 C.ar     29   A    0.3053
    937 H5'        41.1454   51.2389    3.7033 H        29   A    0.0679
    938 H5''       39.5654   51.8568    3.1818 H        29   A    0.0679
    939 H4'        39.7303   49.5198    2.6242 H        29   A    0.1174
    940 H3'        37.8932   49.9773    4.9990 H        29   A    0.0615
    941 H2'        37.3925   47.6547    4.8841 H        29   A    0.0972
    942 H1'        39.9858   46.8493    4.5069 H        29   A    0.2007
    943 H8         40.4118   49.5708    6.9311 H        29   A    0.1553
    944 H2         37.4148   43.9050    7.4041 H        29   A    0.0473
    945 H61        39.0883   47.3097   11.0391 H        29   A    0.4115
    946 H62        38.2783   45.7941   11.3665 H        29   A    0.4115
    947 HO2'       38.7952   47.5989    2.3957 H        29   A    0.4186
    948 P          35.7400   50.3240    3.3820 P.3      30   C    1.1662
    949 OP1        35.0500   50.6710    2.1240 O.co2    30   C   -0.7760
    950 OP2        35.7590   51.3200    4.4710 O.co2    30   C   -0.7760
    951 O5'        35.0910   48.9800    3.9490 O.3      30   C   -0.4989
    952 C5'        34.8010   47.9280    3.0640 C.3      30   C    0.0558
    953 C4'        34.4560   46.6690    3.8210 C.3      30   C    0.1065
    954 O4'        35.5050   46.3260    4.7550 O.3      30   C   -0.3548
    955 C3'        33.2130   46.7690    4.6730 C.3      30   C    0.2022
    956 O3'        32.1090   46.5500    3.8590 O.3      30   C   -0.5246
    957 C2'        33.4410   45.5930    5.6070 C.3      30   C    0.0670
    958 O2'        33.2140   44.3530    4.9660 O.3      30   C   -0.6139
    959 C1'        34.9270   45.7490    5.9110 C.3      30   C    0.0066
    960 N1         35.2360   46.6000    7.1260 N.am     30   C   -0.0484
    961 C2         35.0770   46.0630    8.4190 C.2      30   C    0.7538
    962 O2         34.6790   44.9020    8.5590 O.2      30   C   -0.6252
    963 N3         35.3730   46.8360    9.4990 N.2      30   C   -0.7584
    964 C4         35.8110   48.0870    9.3300 C.2      30   C    0.8185
    965 N4         36.0910   48.7990   10.4240 N.pl3    30   C   -0.9530
    966 C5         35.9810   48.6550    8.0260 C.2      30   C   -0.5215
    967 C6         35.6840   47.8850    6.9690 C.2      30   C    0.0053
    968 H5'        35.6717   47.7396    2.4358 H        30   C    0.0679
    969 H5''       33.9578   48.2108    2.4338 H        30   C    0.0679
    970 H4'        34.3333   45.8514    3.1107 H        30   C    0.1174
    971 H3'        33.1522   47.7170    5.2075 H        30   C    0.0615
    972 H2'        32.8408   45.6854    6.5122 H        30   C    0.0972
    973 H1'        35.3584   44.7591    6.0597 H        30   C    0.2029
    974 H5         36.3357   49.6671    7.8987 H        30   C    0.1928
    975 H6         35.8004   48.2864    5.9731 H        30   C    0.1958
    976 H41        35.9685   48.3886   11.3387 H        30   C    0.4234
    977 H42        36.4253   49.7481   10.3370 H        30   C    0.4234
    978 HO2'       33.4610   43.6372    5.5561 H        30   C    0.4186
    979 P          30.6830   47.1270    4.2600 P.3      31   C    1.1662
    980 OP1        29.7260   46.8230    3.1660 O.co2    31   C   -0.7760
    981 OP2        30.8630   48.5330    4.7250 O.co2    31   C   -0.7760
    982 O5'        30.3100   46.1720    5.4870 O.3      31   C   -0.4989
    983 C5'        29.9730   44.8100    5.2440 C.3      31   C    0.0558
    984 C4'        29.5260   44.1310    6.5220 C.3      31   C    0.1065
    985 O4'        30.6190   44.1050    7.4760 O.3      31   C   -0.3548
    986 C3'        28.3850   44.8340    7.2390 C.3      31   C    0.2022
    987 O3'        27.1720   44.3460    6.7470 O.3      31   C   -0.5246
    988 C2'        28.5880   44.4060    8.6850 C.3      31   C    0.0670
    989 O2'        28.0510   43.1220    8.9140 O.3      31   C   -0.6139
    990 C1'        30.1070   44.3170    8.7880 C.3      31   C    0.0066
    991 N1         30.7900   45.4950    9.4630 N.am     31   C   -0.0484
    992 C2         30.8670   45.5300   10.8630 C.2      31   C    0.7538
    993 O2         30.3570   44.6070   11.5110 O.2      31   C   -0.6252
    994 N3         31.5010   46.5670   11.4740 N.2      31   C   -0.7584
    995 C4         32.0460   47.5330   10.7430 C.2      31   C    0.8185
    996 N4         32.6510   48.5330   11.3810 N.pl3    31   C   -0.9530
    997 C5         31.9820   47.5160    9.3170 C.2      31   C   -0.5215
    998 C6         31.3560   46.4920    8.7240 C.2      31   C    0.0053
    999 H5'        30.8465   44.2905    4.8500 H        31   C    0.0679
   1000 H5''       29.1669   44.7643    4.5117 H        31   C    0.0679
   1001 H4'        29.2271   43.1076    6.2954 H        31   C    0.1174
   1002 H3'        28.4527   45.9165    7.1304 H        31   C    0.0615
   1003 H2'        28.1817   45.1401    9.3808 H        31   C    0.0972
   1004 H1'        30.3403   43.4281    9.3742 H        31   C    0.2029
   1005 H5         32.4266   48.3078    8.7324 H        31   C    0.1928
   1006 H6         31.2984   46.4548    7.6462 H        31   C    0.1958
   1007 H41        32.6884   48.5389   12.3903 H        31   C    0.4234
   1008 H42        33.0725   49.2856   10.8556 H        31   C    0.4234
   1009 HO2'       28.2380   42.5574    8.1605 H        31   C    0.4186
   1010 P          25.9110   45.3240    6.6920 P.3      32   G    1.1662
   1011 OP1        25.2570   45.1410    5.3780 O.co2    32   G   -0.7760
   1012 OP2        26.3460   46.6750    7.1150 O.co2    32   G   -0.7760
   1013 O5'        24.9050   44.7520    7.7950 O.3      32   G   -0.4989
   1014 C5'        25.2450   43.6080    8.5880 C.3      32   G    0.0558
   1015 C4'        24.9090   43.8540   10.0500 C.3      32   G    0.1065
   1016 O4'        25.9370   44.6220   10.7390 O.3      32   G   -0.3548
   1017 C3'        23.6150   44.6070   10.2660 C.3      32   G    0.2022
   1018 O3'        22.9670   43.9370   11.3130 O.3      32   G   -0.5246
   1019 C2'        24.0720   46.0280   10.6110 C.3      32   G    0.0670
   1020 O2'        23.1600   46.6880   11.4500 O.3      32   G   -0.6139
   1021 C1'        25.3730   45.7700   11.3500 C.3      32   G    0.0191
   1022 N9         26.3900   46.8210   11.2700 N.ar     32   G    0.0492
   1023 C8         26.7510   47.5610   10.1720 C.ar     32   G    0.1374
   1024 N7         27.7310   48.3990   10.3970 N.ar     32   G   -0.5709
   1025 C5         28.0640   48.1860   11.7280 C.ar     32   G    0.1744
   1026 C6         29.0580   48.7960   12.5380 C.2      32   G    0.4770
   1027 O6         29.8710   49.6850   12.2380 O.2      32   G   -0.5597
   1028 N1         29.0460   48.2810   13.8320 N.am     32   G   -0.4787
   1029 C2         28.1870   47.3100   14.2860 C.2      32   G    0.7657
   1030 N2         28.3140   46.9420   15.5650 N.pl3    32   G   -0.9672
   1031 N3         27.2640   46.7320   13.5410 N.2      32   G   -0.6323
   1032 C4         27.2520   47.2140   12.2750 C.ar     32   G    0.1222
   1033 H5'        24.6831   42.7448    8.2314 H        32   G    0.0679
   1034 H5''       26.3122   43.4077    8.4924 H        32   G    0.0679
   1035 H4'        24.8228   42.8862   10.5440 H        32   G    0.1174
   1036 H3'        23.0050   44.6018    9.3627 H        32   G    0.0615
   1037 H2'        24.2511   46.6065    9.7047 H        32   G    0.0972
   1038 H1'        25.1578   45.5539   12.3965 H        32   G    0.2006
   1039 H8         26.2703   47.4610    9.2100 H        32   G    0.1640
   1040 H1         29.7207   48.6498   14.4868 H        32   G    0.3424
   1041 H21        29.0164   47.3747   16.1476 H        32   G    0.4364
   1042 H22        27.7075   46.2313   15.9486 H        32   G    0.4364
   1043 HO2'       23.4540   47.5901   11.5962 H        32   G    0.4186
   1044 P          21.4280   44.1470   11.6250 P.3      33   G    1.1662
   1045 OP1        20.6420   44.2890   10.3730 O.co2    33   G   -0.7760
   1046 OP2        21.3890   45.2420   12.6190 O.co2    33   G   -0.7760
   1047 O5'        21.0710   42.7530   12.3220 O.3      33   G   -0.4989
   1048 C5'        20.8590   41.5950   11.5310 C.3      33   G    0.0558
   1049 C4'        20.3390   40.4450   12.3720 C.3      33   G    0.1065
   1050 O4'        21.2270   40.2150   13.4900 O.3      33   G   -0.3548
   1051 C3'        18.9960   40.6870   13.0250 C.3      33   G    0.2022
   1052 O3'        17.9660   40.3430   12.1340 O.3      33   G   -0.5246
   1053 C2'        19.0390   39.7400   14.2100 C.3      33   G    0.0670
   1054 O2'        18.7870   38.3990   13.8330 O.3      33   G   -0.6139
   1055 C1'        20.4840   39.9150   14.6620 C.3      33   G    0.0191
   1056 N9         20.6910   40.9780   15.6540 N.ar     33   G    0.0492
   1057 C8         21.5560   42.0510   15.5620 C.ar     33   G    0.1374
   1058 N7         21.5390   42.8450   16.6000 N.ar     33   G   -0.5709
   1059 C5         20.6000   42.2600   17.4400 C.ar     33   G    0.1744
   1060 C6         20.1490   42.6640   18.7170 C.2      33   G    0.4770
   1061 O6         20.5030   43.6560   19.3630 O.2      33   G   -0.5597
   1062 N1         19.1830   41.7970   19.2360 N.am     33   G   -0.4787
   1063 C2         18.7150   40.6710   18.5920 C.2      33   G    0.7657
   1064 N2         17.7930   39.9420   19.2360 N.pl3    33   G   -0.9672
   1065 N3         19.1350   40.2770   17.3980 N.2      33   G   -0.6323
   1066 C4         20.0710   41.1140   16.8780 C.ar     33   G    0.1222
   1067 H5'        20.1308   41.8242   10.7530 H        33   G    0.0679
   1068 H5''       21.8001   41.3017   11.0657 H        33   G    0.0679
   1069 H4'        20.2867   39.5443   11.7603 H        33   G    0.1174
   1070 H3'        18.9007   41.7219   13.3536 H        33   G    0.0615
   1071 H2'        18.3471   40.0609   14.9887 H        33   G    0.0972
   1072 H1'        20.8416   38.9718   15.0751 H        33   G    0.2006
   1073 H8         22.1920   42.2194   14.7055 H        33   G    0.1640
   1074 H1         18.8011   42.0102   20.1464 H        33   G    0.3424
   1075 H21        17.4690   40.2294   20.1484 H        33   G    0.4364
   1076 H22        17.4222   39.1052   18.8089 H        33   G    0.4364
   1077 HO2'       17.8432   38.2732   13.7108 H        33   G    0.4186
   1078 P          16.8420   41.4370   11.8410 P.3      34   U    1.1662
   1079 OP1        16.2320   41.1170   10.5310 O.co2    34   U   -0.7760
   1080 OP2        17.4410   42.7740   12.0860 O.co2    34   U   -0.7760
   1081 O5'        15.7610   41.1550   12.9930 O.3      34   U   -0.4989
   1082 C5'        15.4660   39.8100   13.4090 C.3      34   U    0.0558
   1083 C4'        14.7070   39.7750   14.7290 C.3      34   U    0.1065
   1084 O4'        15.6380   39.8010   15.8400 O.3      34   U   -0.3548
   1085 C3'        13.7880   40.9530   15.0080 C.3      34   U    0.2022
   1086 O3'        12.5640   40.8090   14.3350 O.3      34   U   -0.5246
   1087 C2'        13.6120   40.8110   16.5080 C.3      34   U    0.0670
   1088 O2'        12.7440   39.7550   16.8400 O.3      34   U   -0.6139
   1089 C1'        15.0370   40.4730   16.9360 C.3      34   U    0.0674
   1090 N1         15.8220   41.7080   17.2890 N.am     34   U    0.0418
   1091 C2         15.6230   42.3100   18.5190 C.2      34   U    0.4687
   1092 O2         14.8630   41.8800   19.3730 O.2      34   U   -0.5477
   1093 N3         16.3670   43.4430   18.7270 N.am     34   U   -0.3549
   1094 C4         17.2660   44.0310   17.8560 C.2      34   U    0.5952
   1095 O4         17.8680   45.0480   18.1890 O.2      34   U   -0.5761
   1096 C5         17.4120   43.3540   16.5980 C.2      34   U   -0.3635
   1097 C6         16.6970   42.2500   16.3680 C.2      34   U   -0.1126
   1098 H5'        14.8594   39.3294   12.6415 H        34   U    0.0679
   1099 H5''       16.4000   39.2593   13.5209 H        34   U    0.0679
   1100 H4'        14.1254   38.8544   14.7774 H        34   U    0.1174
   1101 H3'        14.2691   41.8977   14.7546 H        34   U    0.0615
   1102 H2'        13.2795   41.7479   16.9549 H        34   U    0.0972
   1103 H1'        15.0071   39.8053   17.7970 H        34   U    0.1824
   1104 H3         16.2443   43.9007   19.6189 H        34   U    0.3154
   1105 H5         18.0908   43.7326   15.8482 H        34   U    0.1811
   1106 H6         16.8085   41.7561   15.4140 H        34   U    0.2188
   1107 HO2'       12.1898   40.0169   17.5788 H        34   U    0.4186
   1108 P          11.7420   42.1190   13.9180 P.3      35   G    1.1662
   1109 OP1        10.6580   41.7020   12.9930 O.co2    35   G   -0.7760
   1110 OP2        12.7240   43.1430   13.5190 O.co2    35   G   -0.7760
   1111 O5'        11.0770   42.6170   15.2830 O.3      35   G   -0.4989
   1112 C5'         9.7890   42.1320   15.6630 C.3      35   G    0.0558
   1113 C4'         9.4010   42.6750   17.0220 C.3      35   G    0.1065
   1114 O4'        10.5210   42.5240   17.9320 O.3      35   G   -0.3548
   1115 C3'         9.1300   44.1670   17.0570 C.3      35   G    0.2022
   1116 O3'         7.8380   44.4610   16.5840 O.3      35   G   -0.5246
   1117 C2'         9.2980   44.4500   18.5440 C.3      35   G    0.0670
   1118 O2'         8.2270   43.9870   19.3360 O.3      35   G   -0.6139
   1119 C1'        10.5460   43.6260   18.8280 C.3      35   G    0.0191
   1120 N9         11.7510   44.4090   18.5960 N.ar     35   G    0.0492
   1121 C8         12.6780   44.2280   17.6010 C.ar     35   G    0.1374
   1122 N7         13.6400   45.1030   17.6440 N.ar     35   G   -0.5709
   1123 C5         13.3230   45.9210   18.7230 C.ar     35   G    0.1744
   1124 C6         14.0050   47.0390   19.2550 C.2      35   G    0.4770
   1125 O6         15.0590   47.5440   18.8520 O.2      35   G   -0.5597
   1126 N1         13.3510   47.5770   20.3630 N.am     35   G   -0.4787
   1127 C2         12.1790   47.0900   20.8890 C.2      35   G    0.7657
   1128 N2         11.6850   47.7340   21.9520 N.pl3    35   G   -0.9672
   1129 N3         11.5320   46.0430   20.4000 N.2      35   G   -0.6323
   1130 C4         12.1620   45.5080   19.3200 C.ar     35   G    0.1222
   1131 H5'         9.0530   42.4514   14.9252 H        35   G    0.0679
   1132 H5''        9.8109   41.0429   15.7026 H        35   G    0.0679
   1133 H4'         8.5367   42.1323   17.4049 H        35   G    0.1174
   1134 H3'         9.8805   44.7054   16.4783 H        35   G    0.0615
   1135 H2'         9.4827   45.5097   18.7202 H        35   G    0.0972
   1136 H1'        10.5283   43.2680   19.8574 H        35   G    0.2006
   1137 H8         12.6159   43.4434   16.8614 H        35   G    0.1640
   1138 H1         13.7681   48.3809   20.8100 H        35   G    0.3424
   1139 H21        12.1722   48.5344   22.3289 H        35   G    0.4364
   1140 H22        10.8247   47.4199   22.3779 H        35   G    0.4364
   1141 HO2'        7.4433   44.5102   19.1526 H        35   G    0.4186
   1142 P           7.5450   45.8620   15.8660 P.3      36   G    1.1662
   1143 OP1         6.1210   45.8580   15.4550 O.co2    36   G   -0.7760
   1144 OP2         8.5990   46.1070   14.8610 O.co2    36   G   -0.7760
   1145 O5'         7.7440   46.9350   17.0400 O.3      36   G   -0.4989
   1146 C5'         6.7610   47.0970   18.0830 C.3      36   G    0.0558
   1147 C4'         7.1660   48.2260   19.0160 C.3      36   G    0.1065
   1148 O4'         8.5160   48.0270   19.5230 O.3      36   G   -0.3548
   1149 C3'         7.2660   49.5700   18.3360 C.3      36   G    0.2022
   1150 O3'         5.9810   50.1040   18.1650 O.3      36   G   -0.5246
   1151 C2'         8.1210   50.3520   19.3300 C.3      36   G    0.0670
   1152 O2'         7.4020   50.8040   20.4520 O.3      36   G   -0.6139
   1153 C1'         9.1210   49.2910   19.7670 C.3      36   G    0.0191
   1154 N9         10.4050   49.3750   19.0660 N.ar     36   G    0.0492
   1155 C8         10.8290   48.5930   18.0180 C.ar     36   G    0.1374
   1156 N7         12.0300   48.8860   17.5910 N.ar     36   G   -0.5709
   1157 C5         12.4290   49.9390   18.4030 C.ar     36   G    0.1744
   1158 C6         13.6430   50.6750   18.4180 C.2      36   G    0.4770
   1159 O6         14.6360   50.5560   17.6950 O.2      36   G   -0.5597
   1160 N1         13.6420   51.6550   19.4000 N.am     36   G   -0.4787
   1161 C2         12.6040   51.8970   20.2620 C.2      36   G    0.7657
   1162 N2         12.8100   52.8840   21.1370 N.pl3    36   G   -0.9672
   1163 N3         11.4630   51.2160   20.2700 N.2      36   G   -0.6323
   1164 C4         11.4400   50.2530   19.3160 C.ar     36   G    0.1222
   1165 H5'         5.7954   47.3300   17.6343 H        36   G    0.0679
   1166 H5''        6.6811   46.1702   18.6510 H        36   G    0.0679
   1167 H4'         6.4648   48.2855   19.8484 H        36   G    0.1174
   1168 H3'         7.7761   49.4794   17.3770 H        36   G    0.0615
   1169 H2'         8.6278   51.1809   18.8359 H        36   G    0.0972
   1170 H1'         9.2979   49.3949   20.8375 H        36   G    0.2006
   1171 H8         10.2254   47.8082   17.5865 H        36   G    0.1640
   1172 H1         14.4663   52.2323   19.4861 H        36   G    0.3424
   1173 H21        13.6818   53.3939   21.1271 H        36   G    0.4364
   1174 H22        12.0941   53.1208   21.8089 H        36   G    0.4364
   1175 HO2'        6.9343   50.0664   20.8505 H        36   G    0.4186
   1176 P           5.5010   50.6640   16.7410 P.3      37   U    1.1662
   1177 OP1         4.2640   49.9430   16.3670 O.co2    37   U   -0.7760
   1178 OP2         6.6430   50.7020   15.8020 O.co2    37   U   -0.7760
   1179 O5'         5.1040   52.1680   17.1110 O.3      37   U   -0.4989
   1180 C5'         5.5160   52.7140   18.3660 C.3      37   U    0.0558
   1181 C4'         6.6850   53.6690   18.1970 C.3      37   U    0.1065
   1182 O4'         7.9640   53.0320   18.4220 O.3      37   U   -0.3548
   1183 C3'         6.8820   54.2320   16.8060 C.3      37   U    0.2022
   1184 O3'         5.7330   55.0180   16.4500 O.3      37   U   -0.5246
   1185 C2'         8.2160   54.9490   17.0380 C.3      37   U    0.0670
   1186 O2'         8.1080   56.1150   17.8230 O.3      37   U   -0.6139
   1187 C1'         8.9560   53.8870   17.8560 C.3      37   U    0.0674
   1188 N1          9.9780   53.1110   17.0500 N.am     37   U    0.0418
   1189 C2         11.2910   53.5620   17.0160 C.2      37   U    0.4687
   1190 O2         11.6830   54.5490   17.6080 O.2      37   U   -0.5477
   1191 N3         12.1520   52.8100   16.2580 N.am     37   U   -0.3549
   1192 C4         11.8490   51.6740   15.5320 C.2      37   U    0.5952
   1193 O4         12.7390   51.1030   14.8940 O.2      37   U   -0.5761
   1194 C5         10.4620   51.2660   15.6100 C.2      37   U   -0.3635
   1195 C6          9.6000   51.9820   16.3460 C.2      37   U   -0.1126
   1196 H5'         5.8157   51.8998   19.0258 H        37   U    0.0679
   1197 H5''        4.6793   53.2489   18.8153 H        37   U    0.0679
   1198 H4'         6.5722   54.4943   18.9000 H        37   U    0.1174
   1199 H3'         7.0145   53.4203   16.0907 H        37   U    0.0615
   1200 H2'         8.7265   55.1510   16.0964 H        37   U    0.0972
   1201 H1'         9.4769   54.3888   18.6715 H        37   U    0.1824
   1202 H3         13.1126   53.1206   16.2271 H        37   U    0.3154
   1203 H5         10.1235   50.3892   15.0779 H        37   U    0.1811
   1204 H6          8.5687   51.6644   16.3910 H        37   U    0.2188
   1205 HO2'        8.4727   56.8604   17.3403 H        37   U    0.4186
   1206 P           5.7640   56.4320   15.6550 P.3      38   A    1.1662
   1207 OP1         6.7690   57.3060   16.2980 O.co2    38   A   -0.7760
   1208 OP2         4.3680   56.9040   15.5390 O.co2    38   A   -0.7760
   1209 O5'         6.2720   56.0720   14.1810 O.3      38   A   -0.4989
   1210 C5'         6.2890   57.1280   13.2040 C.3      38   A    0.0558
   1211 C4'         7.6290   57.3080   12.4890 C.3      38   A    0.1065
   1212 O4'         7.7490   58.6860   12.0360 O.3      38   A   -0.3548
   1213 C3'         8.9180   57.0260   13.2770 C.3      38   A    0.2022
   1214 O3'         9.7590   56.2010   12.5010 O.3      38   A   -0.5246
   1215 C2'         9.5590   58.4060   13.3990 C.3      38   A    0.0670
   1216 O2'        10.9680   58.3580   13.4330 O.3      38   A   -0.6139
   1217 C1'         9.1250   58.9740   12.0680 C.3      38   A    0.0394
   1218 N9          9.3990   60.3960   11.8550 N.ar     38   A   -0.0251
   1219 C8          9.6730   61.3540   12.7920 C.ar     38   A    0.2006
   1220 N7          9.9040   62.5420   12.2860 N.ar     38   A   -0.6073
   1221 C5          9.7880   62.3460   10.9180 C.ar     38   A    0.0515
   1222 C6          9.9170   63.2150    9.8090 C.ar     38   A    0.7009
   1223 N6         10.1990   64.5180    9.9160 N.pl3    38   A   -0.9019
   1224 N1          9.7280   62.6960    8.5780 N.ar     38   A   -0.7615
   1225 C2          9.4340   61.3950    8.4650 C.ar     38   A    0.5875
   1226 N3          9.2920   60.4840    9.4240 N.ar     38   A   -0.6997
   1227 C4          9.4820   61.0290   10.6370 C.ar     38   A    0.3053
   1228 H5'         5.5293   56.9097   12.4535 H        38   A    0.0679
   1229 H5''        6.0303   58.0641   13.6989 H        38   A    0.0679
   1230 H4'         7.6276   56.6653   11.6087 H        38   A    0.1174
   1231 H3'         8.7090   56.5882   14.2531 H        38   A    0.0615
   1232 H2'         9.1505   58.9722   14.2361 H        38   A    0.0972
   1233 H1'         9.6139   58.4069   11.2759 H        38   A    0.2007
   1234 H8          9.6970   61.1507   13.8524 H        38   A    0.1553
   1235 H2          9.2926   61.0354    7.4565 H        38   A    0.0473
   1236 H61        10.3387   64.9313   10.8269 H        38   A    0.4115
   1237 H62        10.2723   65.0887    9.0859 H        38   A    0.4115
   1238 HO2'       11.2812   58.7356   14.2582 H        38   A    0.4186
   1239 P           9.7880   54.6310   12.7130 P.3      39   U    1.1662
   1240 OP1         8.3740   54.1750   12.8070 O.co2    39   U   -0.7760
   1241 OP2        10.7510   54.3600   13.7950 O.co2    39   U   -0.7760
   1242 O5'        10.4750   54.0740   11.3770 O.3      39   U   -0.4989
   1243 C5'        11.2130   52.8430   11.4050 C.3      39   U    0.0558
   1244 C4'        12.2540   52.7650   10.2890 C.3      39   U    0.1065
   1245 O4'        11.8570   53.6040    9.1730 O.3      39   U   -0.3548
   1246 C3'        13.6620   53.2210   10.6570 C.3      39   U    0.2022
   1247 O3'        14.5940   52.3660   10.0470 O.3      39   U   -0.5246
   1248 C2'        13.7320   54.6480   10.1010 C.3      39   U    0.0670
   1249 O2'        15.0570   55.0480    9.8070 O.3      39   U   -0.6139
   1250 C1'        12.9090   54.4850    8.8290 C.3      39   U    0.0674
   1251 N1         12.2940   55.7230    8.2630 N.am     39   U    0.0418
   1252 C2         12.9620   56.4270    7.2820 C.2      39   U    0.4687
   1253 O2         14.0590   56.1130    6.8700 O.2      39   U   -0.5477
   1254 N3         12.3090   57.5290    6.7990 N.am     39   U   -0.3549
   1255 C4         11.0560   57.9830    7.1790 C.2      39   U    0.5952
   1256 O4         10.5850   58.9940    6.6580 O.2      39   U   -0.5761
   1257 C5         10.4070   57.1860    8.1960 C.2      39   U   -0.3635
   1258 C6         11.0350   56.1040    8.6810 C.2      39   U   -0.1126
   1259 H5'        11.7221   52.7615   12.3653 H        39   U    0.0679
   1260 H5''       10.5177   52.0101   11.3004 H        39   U    0.0679
   1261 H4'        12.3073   51.7335    9.9409 H        39   U    0.1174
   1262 H3'        13.7942   53.2236   11.7390 H        39   U    0.0615
   1263 H2'        13.2565   55.3533   10.7826 H        39   U    0.0972
   1264 H1'        13.5281   54.0157    8.0644 H        39   U    0.1824
   1265 H3         12.7903   58.0669    6.0925 H        39   U    0.3154
   1266 H5          9.4278   57.4585    8.5611 H        39   U    0.1811
   1267 H6         10.5349   55.5068    9.4291 H        39   U    0.2188
   1268 HO2'       15.6680   54.3634   10.0891 H        39   U    0.4186
   1269 P          15.2720   51.2160   10.9170 P.3      40   A    1.1662
   1270 OP1        16.1840   50.4170   10.0720 O.co2    40   A   -0.7760
   1271 OP2        14.1950   50.5270   11.6720 O.co2    40   A   -0.7760
   1272 O5'        16.1710   52.0460   11.9360 O.3      40   A   -0.4989
   1273 C5'        17.2510   52.8280   11.4730 C.3      40   A    0.0558
   1274 C4'        18.4310   52.7520   12.4340 C.3      40   A    0.1065
   1275 O4'        18.1720   53.5790   13.5920 O.3      40   A   -0.3548
   1276 C3'        18.7660   51.3860   13.0020 C.3      40   A    0.2022
   1277 O3'        20.1380   51.3730   13.3680 O.3      40   A   -0.5246
   1278 C2'        17.9050   51.3480   14.2650 C.3      40   A    0.0670
   1279 O2'        18.4200   50.4470   15.2330 O.3      40   A   -0.6139
   1280 C1'        18.0490   52.7800   14.7560 C.3      40   A    0.0394
   1281 N9         16.9230   53.3220   15.5130 N.ar     40   A   -0.0251
   1282 C8         15.6090   52.9820   15.3990 C.ar     40   A    0.2006
   1283 N7         14.8230   53.6660   16.1920 N.ar     40   A   -0.6073
   1284 C5         15.6780   54.5200   16.8660 C.ar     40   A    0.0515
   1285 C6         15.4620   55.5110   17.8490 C.ar     40   A    0.7009
   1286 N6         14.2500   55.8070   18.3360 N.pl3    40   A   -0.9019
   1287 N1         16.5420   56.1880   18.3160 N.ar     40   A   -0.7615
   1288 C2         17.7510   55.8880   17.8280 C.ar     40   A    0.5875
   1289 N3         18.0650   54.9830   16.9020 N.ar     40   A   -0.6997
   1290 C4         16.9770   54.3250   16.4580 C.ar     40   A    0.3053
   1291 H5'        16.9283   53.8655   11.3861 H        40   A    0.0679
   1292 H5''       17.5622   52.4658   10.4932 H        40   A    0.0679
   1293 H4'        19.3141   53.1390   11.9256 H        40   A    0.1174
   1294 H3'        18.5173   50.5810   12.3105 H        40   A    0.0615
   1295 H2'        16.8669   51.1170   14.0261 H        40   A    0.0972
   1296 H1'        18.9583   52.8673   15.3507 H        40   A    0.2007
   1297 H8         15.2503   52.2221   14.7205 H        40   A    0.1553
   1298 H2         18.5773   56.4508   18.2365 H        40   A    0.0473
   1299 H61        13.4361   55.3124   17.9998 H        40   A    0.4115
   1300 H62        14.1499   56.5248   19.0394 H        40   A    0.4115
   1301 HO2'       17.9134   49.6318   15.2135 H        40   A    0.4186
   1302 P          21.2850   50.7810   12.4280 P.3      41   G    1.1662
   1303 OP1        22.5450   51.4930   12.7610 O.co2    41   G   -0.7760
   1304 OP2        20.7210   50.8380   11.0650 O.co2    41   G   -0.7760
   1305 O5'        21.4770   49.2310   12.8040 O.3      41   G   -0.4989
   1306 C5'        21.1290   48.6740   14.0740 C.3      41   G    0.0558
   1307 C4'        22.3310   48.3790   14.9740 C.3      41   G    0.1065
   1308 O4'        23.5640   48.1720   14.2410 O.3      41   G   -0.3548
   1309 C3'        22.7050   49.4910   15.9330 C.3      41   G    0.2022
   1310 O3'        21.7700   49.5330   16.9990 O.3      41   G   -0.5246
   1311 C2'        24.0930   49.0280   16.3690 C.3      41   G    0.0670
   1312 O2'        24.0500   47.9200   17.2390 O.3      41   G   -0.6139
   1313 C1'        24.6780   48.5570   15.0460 C.3      41   G    0.0191
   1314 N9         25.4810   49.5560   14.3370 N.ar     41   G    0.0492
   1315 C8         25.3070   49.9490   13.0360 C.ar     41   G    0.1374
   1316 N7         26.1500   50.8590   12.6360 N.ar     41   G   -0.5709
   1317 C5         26.9420   51.0910   13.7410 C.ar     41   G    0.1744
   1318 C6         28.0320   51.9750   13.8910 C.2      41   G    0.4770
   1319 O6         28.5200   52.7510   13.0580 O.2      41   G   -0.5597
   1320 N1         28.5620   51.9270   15.1730 N.am     41   G   -0.4787
   1321 C2         28.1130   51.1140   16.1780 C.2      41   G    0.7657
   1322 N2         28.7770   51.2160   17.3400 N.pl3    41   G   -0.9672
   1323 N3         27.0940   50.2630   16.0460 N.2      41   G   -0.6323
   1324 C4         26.5520   50.3000   14.8010 C.ar     41   G    0.1222
   1325 H5'        20.4786   49.3795   14.5911 H        41   G    0.0679
   1326 H5''       20.5792   47.7472   13.9103 H        41   G    0.0679
   1327 H4'        22.1175   47.4803   15.5527 H        41   G    0.1174
   1328 H3'        22.7560   50.4508   15.4189 H        41   G    0.0615
   1329 H2'        24.6729   49.8475   16.7935 H        41   G    0.0972
   1330 H1'        25.2962   47.6784   15.2303 H        41   G    0.2006
   1331 H8         24.5380   49.5402   12.3973 H        41   G    0.1640
   1332 H1         29.3384   52.5389   15.3799 H        41   G    0.3424
   1333 H21        29.5481   51.8626   17.4259 H        41   G    0.4364
   1334 H22        28.5055   50.6461   18.1285 H        41   G    0.4364
   1335 HO2'       23.6665   48.1864   18.0778 H        41   G    0.4186
   1336 P          20.9400   50.8700   17.3210 P.3      42   U    1.1662
   1337 OP1        19.7080   50.4590   18.0280 O.co2    42   U   -0.7760
   1338 OP2        20.8060   51.7210   16.1220 O.co2    42   U   -0.7760
   1339 O5'        21.9150   51.6500   18.3270 O.3      42   U   -0.4989
   1340 C5'        22.4540   51.0190   19.4770 C.3      42   U    0.0558
   1341 C4'        23.2790   52.0210   20.2530 C.3      42   U    0.1065
   1342 O4'        24.6070   52.0450   19.6830 O.3      42   U   -0.3548
   1343 C3'        22.7350   53.4510   20.1910 C.3      42   U    0.2022
   1344 O3'        22.0450   53.8820   21.4030 O.3      42   U   -0.5246
   1345 C2'        23.9410   54.3350   19.8900 C.3      42   U    0.0670
   1346 O2'        24.2790   55.2080   20.9550 O.3      42   U   -0.6139
   1347 C1'        25.0760   53.3650   19.5400 C.3      42   U    0.0674
   1348 N1         25.4880   53.6040   18.1300 N.am     42   U    0.0418
   1349 C2         26.6610   54.3050   17.8770 C.2      42   U    0.4687
   1350 O2         27.4230   54.6940   18.7490 O.2      42   U   -0.5477
   1351 N3         26.9240   54.5230   16.5420 N.am     42   U   -0.3549
   1352 C4         26.1360   54.1430   15.4650 C.2      42   U    0.5952
   1353 O4         26.4970   54.4220   14.3260 O.2      42   U   -0.5761
   1354 C5         24.9250   53.4340   15.8130 C.2      42   U   -0.3635
   1355 C6         24.6470   53.2060   17.1010 C.2      42   U   -0.1126
   1356 H5'        21.6426   50.6508   20.1048 H        42   U    0.0679
   1357 H5''       23.0860   50.1849   19.1723 H        42   U    0.0679
   1358 H4'        23.3410   51.7053   21.2944 H        42   U    0.1174
   1359 H3'        22.0393   53.5197   19.3547 H        42   U    0.0615
   1360 H2'        23.7168   54.9362   19.0089 H        42   U    0.0972
   1361 H1'        25.9228   53.5308   20.2060 H        42   U    0.1824
   1362 H3         27.7811   55.0110   16.3245 H        42   U    0.3154
   1363 H5         24.2519   53.0921   15.0407 H        42   U    0.1811
   1364 H6         23.7308   52.6913   17.3502 H        42   U    0.2188
   1365 HO2'       24.8752   55.8887   20.6344 H        42   U    0.4186
   1366 P          22.2450   53.2010   22.8560 P.3      43   C    1.1662
   1367 OP1        23.6920   53.2060   23.1970 O.co2    43   C   -0.7760
   1368 OP2        21.5030   51.9100   22.8850 O.co2    43   C   -0.7760
   1369 O5'        21.4690   54.2500   23.7900 O.3      43   C   -0.4989
   1370 C5'        21.0110   55.4980   23.2710 C.3      43   C    0.0558
   1371 C4'        19.5810   55.7980   23.6960 C.3      43   C    0.1065
   1372 O4'        18.8280   56.1460   22.5040 O.3      43   C   -0.3548
   1373 C3'        18.8050   54.6490   24.3400 C.3      43   C    0.2022
   1374 O3'        18.8820   54.6800   25.7650 O.3      43   C   -0.5246
   1375 C2'        17.3720   54.8950   23.8830 C.3      43   C    0.0670
   1376 O2'        16.6670   55.7780   24.7330 O.3      43   C   -0.6139
   1377 C1'        17.5620   55.5020   22.5010 C.3      43   C    0.0066
   1378 N1         17.4810   54.4710   21.4120 N.am     43   C   -0.0484
   1379 C2         16.2240   54.0940   20.9270 C.2      43   C    0.7538
   1380 O2         15.2170   54.6240   21.3860 O.2      43   C   -0.6252
   1381 N3         16.1370   53.1560   19.9520 N.2      43   C   -0.7584
   1382 C4         17.2440   52.5950   19.4600 C.2      43   C    0.8185
   1383 N4         17.0960   51.6780   18.5020 N.pl3    43   C   -0.9530
   1384 C5         18.5450   52.9490   19.9480 C.2      43   C   -0.5215
   1385 C6         18.6140   53.8820   20.9150 C.2      43   C    0.0053
   1386 H5'        21.6615   56.2921   23.6375 H        43   C    0.0679
   1387 H5''       21.0607   55.4708   22.1825 H        43   C    0.0679
   1388 H4'        19.5837   56.6500   24.3759 H        43   C    0.1174
   1389 H3'        19.1636   53.6915   23.9623 H        43   C    0.0615
   1390 H2'        16.8382   53.9480   23.8040 H        43   C    0.0972
   1391 H1'        16.7869   56.2503   22.3356 H        43   C    0.2029
   1392 H5         19.4365   52.4839   19.5539 H        43   C    0.1928
   1393 H6         19.5783   54.1714   21.3059 H        43   C    0.1958
   1394 H41        16.1723   51.4363   18.1727 H        43   C    0.4234
   1395 H42        17.9077   51.2256   18.1062 H        43   C    0.4234
   1396 HO2'       15.8032   55.9625   24.3569 H        43   C    0.4186
   1397 P          18.5010   53.3590   26.6000 P.3      44   C    1.1662
   1398 OP1        18.6350   53.6730   28.0430 O.co2    44   C   -0.7760
   1399 OP2        19.2680   52.2270   26.0190 O.co2    44   C   -0.7760
   1400 O5'        16.9510   53.1240   26.2420 O.3      44   C   -0.4989
   1401 C5'        15.9050   53.5390   27.1080 C.3      44   C    0.0558
   1402 C4'        14.6010   52.8340   26.7700 C.3      44   C    0.1065
   1403 O4'        14.2520   53.0340   25.3720 O.3      44   C   -0.3548
   1404 C3'        14.6090   51.3190   26.9210 C.3      44   C    0.2022
   1405 O3'        14.4560   50.9230   28.2640 O.3      44   C   -0.5246
   1406 C2'        13.3980   50.9400   26.0740 C.3      44   C    0.0670
   1407 O2'        12.1490   51.1740   26.6930 O.3      44   C   -0.6139
   1408 C1'        13.5940   51.8700   24.8800 C.3      44   C    0.0066
   1409 N1         14.4190   51.1930   23.8170 N.am     44   C   -0.0484
   1410 C2         13.8300   50.1980   23.0130 C.2      44   C    0.7538
   1411 O2         12.6360   49.9110   23.1640 O.2      44   C   -0.6252
   1412 N3         14.5830   49.5820   22.0650 N.2      44   C   -0.7584
   1413 C4         15.8630   49.9160   21.9140 C.2      44   C    0.8185
   1414 N4         16.5560   49.2750   20.9760 N.pl3    44   C   -0.9530
   1415 C5         16.4900   50.9060   22.7320 C.2      44   C   -0.5215
   1416 C6         15.7410   51.5090   23.6610 C.2      44   C    0.0053
   1417 H5'        15.7644   54.6151   27.0058 H        44   C    0.0679
   1418 H5''       16.1799   53.3097   28.1375 H        44   C    0.0679
   1419 H4'        13.8069   53.2454   27.3931 H        44   C    0.1174
   1420 H3'        15.5203   50.8963   26.4980 H        44   C    0.0615
   1421 H2'        13.4716   49.8998   25.7567 H        44   C    0.0972
   1422 H1'        12.6231   52.1457   24.4685 H        44   C    0.2029
   1423 H5         17.5323   51.1582   22.6042 H        44   C    0.1928
   1424 H6         16.1869   52.2579   24.2988 H        44   C    0.1958
   1425 H41        16.1060   48.5717   20.4077 H        44   C    0.4234
   1426 H42        17.5320   49.4918   20.8324 H        44   C    0.4234
   1427 HO2'       12.0454   50.5802   27.4402 H        44   C    0.4186
   1428 P          15.4320   49.8320   28.9070 P.3      45   A    1.1662
   1429 OP1        15.0890   49.7790   30.3480 O.co2    45   A   -0.7760
   1430 OP2        16.8250   50.1370   28.5030 O.co2    45   A   -0.7760
   1431 O5'        14.9870   48.4630   28.1970 O.3      45   A   -0.4989
   1432 C5'        13.7260   47.8850   28.5240 C.3      45   A    0.0558
   1433 C4'        13.2200   46.9010   27.4780 C.3      45   A    0.1065
   1434 O4'        13.1770   47.5220   26.1710 O.3      45   A   -0.3548
   1435 C3'        14.0610   45.6540   27.2400 C.3      45   A    0.2022
   1436 O3'        13.8840   44.6900   28.2600 O.3      45   A   -0.5246
   1437 C2'        13.4920   45.1780   25.9080 C.3      45   A    0.0670
   1438 O2'        12.2560   44.4990   26.0100 O.3      45   A   -0.6139
   1439 C1'        13.3260   46.5100   25.1810 C.3      45   A    0.0394
   1440 N9         14.5080   46.7590   24.3700 N.ar     45   A   -0.0251
   1441 C8         15.5100   47.6640   24.5810 C.ar     45   A    0.2006
   1442 N7         16.4620   47.6060   23.6790 N.ar     45   A   -0.6073
   1443 C5         16.0590   46.5880   22.8300 C.ar     45   A    0.0515
   1444 C6         16.6260   46.0250   21.6680 C.ar     45   A    0.7009
   1445 N6         17.7790   46.4340   21.1380 N.pl3    45   A   -0.9019
   1446 N1         15.9590   45.0190   21.0650 N.ar     45   A   -0.7615
   1447 C2         14.8020   44.6000   21.5930 C.ar     45   A    0.5875
   1448 N3         14.1690   45.0480   22.6760 N.ar     45   A   -0.6997
   1449 C4         14.8600   46.0500   23.2510 C.ar     45   A    0.3053
   1450 H5'        13.8234   47.3591   29.4738 H        45   A    0.0679
   1451 H5''       12.9929   48.6835   28.6384 H        45   A    0.0679
   1452 H4'        12.2105   46.5929   27.7500 H        45   A    0.1174
   1453 H3'        15.1142   45.9149   27.1366 H        45   A    0.0615
   1454 H2'        14.2209   44.5553   25.3893 H        45   A    0.0972
   1455 H1'        12.4404   46.4785   24.5463 H        45   A    0.2007
   1456 H8         15.5179   48.3584   25.4082 H        45   A    0.1553
   1457 H2         14.3165   43.7893   21.0701 H        45   A    0.0473
   1458 H61        18.2957   47.1857   21.5717 H        45   A    0.4115
   1459 H62        18.1358   45.9922   20.3028 H        45   A    0.4115
   1460 HO2'       12.3849   43.6661   26.4697 H        45   A    0.4186
   1461 P          15.1010   43.7220   28.6260 P.3      46   C    1.1662
   1462 OP1        14.7400   43.0120   29.8740 O.co2    46   C   -0.7760
   1463 OP2        16.3460   44.5170   28.5710 O.co2    46   C   -0.7760
   1464 O5'        15.1300   42.6750   27.4150 O.3      46   C   -0.4989
   1465 C5'        14.1110   41.6910   27.2960 C.3      46   C    0.0558
   1466 C4'        14.1500   40.9930   25.9470 C.3      46   C    0.1065
   1467 O4'        14.3140   41.9490   24.8640 O.3      46   C   -0.3548
   1468 C3'        15.3050   40.0290   25.7300 C.3      46   C    0.2022
   1469 O3'        15.1000   38.7990   26.4320 O.3      46   C   -0.5246
   1470 C2'        15.2100   39.8690   24.2160 C.3      46   C    0.0670
   1471 O2'        14.0870   39.1090   23.8120 O.3      46   C   -0.6139
   1472 C1'        15.0010   41.3190   23.7910 C.3      46   C    0.0066
   1473 N1         16.2800   42.0610   23.4760 N.am     46   C   -0.0484
   1474 C2         17.0200   41.7560   22.3110 C.2      46   C    0.7538
   1475 O2         16.6230   40.8760   21.5370 O.2      46   C   -0.6252
   1476 N3         18.1650   42.4380   22.0570 N.2      46   C   -0.7584
   1477 C4         18.5740   43.3910   22.8980 C.2      46   C    0.8185
   1478 N4         19.7030   44.0450   22.6030 N.pl3    46   C   -0.9530
   1479 C5         17.8460   43.7170   24.0820 C.2      46   C   -0.5215
   1480 C6         16.7190   43.0380   24.3270 C.2      46   C    0.0053
   1481 H5'        14.2465   40.9472   28.0812 H        46   C    0.0679
   1482 H5''       13.1391   42.1682   27.4218 H        46   C    0.0679
   1483 H4'        13.2126   40.4560   25.8023 H        46   C    0.1174
   1484 H3'        16.2526   40.4864   26.0145 H        46   C    0.0615
   1485 H2'        16.1330   39.4635   23.8015 H        46   C    0.0972
   1486 H1'        14.3611   41.3357   22.9088 H        46   C    0.2029
   1487 H5         18.1929   44.4854   24.7570 H        46   C    0.1928
   1488 H6         16.1453   43.2657   25.2133 H        46   C    0.1958
   1489 H41        20.2171   43.8125   21.7653 H        46   C    0.4234
   1490 H42        20.0413   44.7713   23.2180 H        46   C    0.4234
   1491 HO2'       14.0943   38.2624   24.2645 H        46   C    0.4186
   1492 P          16.3620   37.9350   26.9050 P.3      47   G    1.1662
   1493 OP1        15.8970   36.8380   27.7830 O.co2    47   G   -0.7760
   1494 OP2        17.3870   38.8860   27.3880 O.co2    47   G   -0.7760
   1495 O5'        16.9000   37.3040   25.5380 O.3      47   G   -0.4989
   1496 C5'        16.1900   36.2700   24.8550 C.3      47   G    0.0558
   1497 C4'        16.9220   35.9100   23.5750 C.3      47   G    0.1065
   1498 O4'        17.0790   37.0940   22.7540 O.3      47   G   -0.3548
   1499 C3'        18.3430   35.4220   23.7950 C.3      47   G    0.2022
   1500 O3'        18.3690   34.0350   24.0630 O.3      47   G   -0.5246
   1501 C2'        19.0610   35.7970   22.4990 C.3      47   G    0.0670
   1502 O2'        18.9060   34.8380   21.4690 O.3      47   G   -0.6139
   1503 C1'        18.3560   37.0980   22.1300 C.3      47   G    0.0191
   1504 N9         19.0780   38.3020   22.5340 N.ar     47   G    0.0492
   1505 C8         18.9440   39.0000   23.7090 C.ar     47   G    0.1374
   1506 N7         19.7210   40.0490   23.7870 N.ar     47   G   -0.5709
   1507 C5         20.4090   40.0510   22.5880 C.ar     47   G    0.1744
   1508 C6         21.3870   40.9490   22.1050 C.2      47   G    0.4770
   1509 O6         21.8470   41.9530   22.6660 O.2      47   G   -0.5597
   1510 N1         21.8370   40.5900   20.8330 N.am     47   G   -0.4787
   1511 C2         21.3990   39.4930   20.1270 C.2      47   G    0.7657
   1512 N2         21.9430   39.2980   18.9220 N.pl3    47   G   -0.9672
   1513 N3         20.4790   38.6440   20.5700 N.2      47   G   -0.6323
   1514 C4         20.0270   38.9830   21.8040 C.ar     47   G    0.1222
   1515 H5'        15.1860   36.6184   24.6129 H        47   G    0.0679
   1516 H5''       16.1245   35.3904   25.4955 H        47   G    0.0679
   1517 H4'        16.3557   35.1564   23.0278 H        47   G    0.1174
   1518 H3'        18.7895   35.9632   24.6292 H        47   G    0.0615
   1519 H2'        20.1183   35.9799   22.6907 H        47   G    0.0972
   1520 H1'        18.2151   37.1230   21.0494 H        47   G    0.2006
   1521 H8         18.2616   38.7101   24.4943 H        47   G    0.1640
   1522 H1         22.5345   41.1780   20.3996 H        47   G    0.3424
   1523 H21        22.6415   39.9390   18.5735 H        47   G    0.4364
   1524 H22        21.6557   38.5097   18.3598 H        47   G    0.4364
   1525 HO2'       19.5268   34.1186   21.6056 H        47   G    0.4186
   1526 P          19.2940   33.5250   25.2660 P.3      48   A    1.1662
   1527 OP1        18.6650   32.3150   25.8380 O.co2    48   A   -0.7760
   1528 OP2        19.5940   34.6980   26.1200 O.co2    48   A   -0.7760
   1529 O5'        20.6620   33.1000   24.5600 O.3      48   A   -0.4989
   1530 C5'        20.6590   32.1940   23.4670 C.3      48   A    0.0558
   1531 C4'        21.8740   32.4460   22.6000 C.3      48   A    0.1065
   1532 O4'        21.8930   33.8230   22.1680 O.3      48   A   -0.3548
   1533 C3'        23.1770   32.2730   23.3490 C.3      48   A    0.2022
   1534 O3'        23.5300   30.8970   23.3570 O.3      48   A   -0.5246
   1535 C2'        24.1420   33.1440   22.5540 C.3      48   A    0.0670
   1536 O2'        24.6710   32.4670   21.4320 O.3      48   A   -0.6139
   1537 C1'        23.2270   34.2780   22.1000 C.3      48   A    0.0394
   1538 N9         23.3150   35.4660   22.9270 N.ar     48   A   -0.0251
   1539 C8         22.9940   35.5780   24.2490 C.ar     48   A    0.2006
   1540 N7         23.1690   36.7870   24.7330 N.ar     48   A   -0.6073
   1541 C5         23.6270   37.5190   23.6530 C.ar     48   A    0.0515
   1542 C6         23.9920   38.8750   23.5070 C.ar     48   A    0.7009
   1543 N6         23.9520   39.7620   24.5050 N.pl3    48   A   -0.9019
   1544 N1         24.4090   39.2870   22.2900 N.ar     48   A   -0.7615
   1545 C2         24.4400   38.3900   21.2890 C.ar     48   A    0.5875
   1546 N3         24.1190   37.0910   21.3030 N.ar     48   A   -0.6997
   1547 C4         23.7180   36.7170   22.5280 C.ar     48   A    0.3053
   1548 H5'        20.6867   31.1712   23.8428 H        48   A    0.0679
   1549 H5''       19.7545   32.3399   22.8765 H        48   A    0.0679
   1550 H4'        21.8542   31.7857   21.7330 H        48   A    0.1174
   1551 H3'        23.0810   32.6461   24.3687 H        48   A    0.0615
   1552 H2'        24.9409   33.5213   23.1924 H        48   A    0.0972
   1553 H1'        23.4647   34.5400   21.0690 H        48   A    0.2007
   1554 H8         22.6306   34.7511   24.8411 H        48   A    0.1553
   1555 H2         24.7721   38.7734   20.3355 H        48   A    0.0473
   1556 H61        23.6458   39.4751   25.4237 H        48   A    0.4115
   1557 H62        24.2280   40.7196   24.3409 H        48   A    0.4115
   1558 HO2'       25.2446   31.7563   21.7277 H        48   A    0.4186
   1559 P          23.8030   30.1790   24.7550 P.3      49   A    1.1662
   1560 OP1        24.0080   28.7400   24.4820 O.co2    49   A   -0.7760
   1561 OP2        22.7390   30.6120   25.6920 O.co2    49   A   -0.7760
   1562 O5'        25.1840   30.8450   25.2280 O.3      49   A   -0.4989
   1563 C5'        26.4070   30.3350   24.7270 C.3      49   A    0.0558
   1564 C4'        27.5420   31.2510   25.1160 C.3      49   A    0.1065
   1565 O4'        27.0840   32.6070   25.0290 O.3      49   A   -0.3548
   1566 C3'        27.9740   31.1520   26.5650 C.3      49   A    0.2022
   1567 O3'        28.8410   30.0590   26.7350 O.3      49   A   -0.5246
   1568 C2'        28.6740   32.4850   26.7980 C.3      49   A    0.0670
   1569 O2'        30.0070   32.5020   26.3280 O.3      49   A   -0.6139
   1570 C1'        27.8050   33.4140   25.9610 C.3      49   A    0.0394
   1571 N9         26.8210   34.1660   26.7310 N.ar     49   A   -0.0251
   1572 C8         25.4610   34.0680   26.5920 C.ar     49   A    0.2006
   1573 N7         24.7900   34.8570   27.3900 N.ar     49   A   -0.6073
   1574 C5         25.7720   35.5050   28.1040 C.ar     49   A    0.0515
   1575 C6         25.6920   36.4680   29.1150 C.ar     49   A    0.7009
   1576 N6         24.5260   36.9390   29.5660 N.pl3    49   A   -0.9019
   1577 N1         26.8580   36.9330   29.6290 N.ar     49   A   -0.7615
   1578 C2         28.0190   36.4450   29.1540 C.ar     49   A    0.5875
   1579 N3         28.2080   35.5220   28.2020 N.ar     49   A   -0.6997
   1580 C4         27.0330   35.0950   27.7140 C.ar     49   A    0.3053
   1581 H5'        26.3527   30.2680   23.6404 H        49   A    0.0679
   1582 H5''       26.5833   29.3430   25.1428 H        49   A    0.0679
   1583 H4'        28.3954   31.0971   24.4556 H        49   A    0.1174
   1584 H3'        27.1059   31.0567   27.2173 H        49   A    0.0615
   1585 H2'        28.6329   32.7633   27.8511 H        49   A    0.0972
   1586 H1'        28.4432   34.1096   25.4161 H        49   A    0.2007
   1587 H8         24.9870   33.4002   25.8878 H        49   A    0.1553
   1588 H2         28.9156   36.8508   29.5988 H        49   A    0.0473
   1589 H61        23.6588   36.5956   29.1786 H        49   A    0.4115
   1590 H62        24.5117   37.6385   30.2944 H        49   A    0.4115
   1591 HO2'       30.5432   31.9129   26.8638 H        49   A    0.4186
   1592 P          28.4420   28.9090   27.7720 P.3      50   A    1.1662
   1593 OP1        29.3600   27.7740   27.5120 O.co2    50   A   -0.7760
   1594 OP2        26.9690   28.7130   27.7490 O.co2    50   A   -0.7760
   1595 O5'        28.8450   29.5850   29.1630 O.3      50   A   -0.4989
   1596 C5'        30.2160   29.6660   29.5070 C.3      50   A    0.0558
   1597 C4'        30.4450   30.7990   30.4820 C.3      50   A    0.1065
   1598 O4'        29.8630   32.0140   29.9560 O.3      50   A   -0.3548
   1599 C3'        29.7440   30.6450   31.8220 C.3      50   A    0.2022
   1600 O3'        30.4380   29.7550   32.6850 O.3      50   A   -0.5246
   1601 C2'        29.7490   32.0860   32.3180 C.3      50   A    0.0670
   1602 O2'        31.0230   32.5370   32.7550 O.3      50   A   -0.6139
   1603 C1'        29.3280   32.7770   31.0270 C.3      50   A    0.0394
   1604 N9         27.8790   32.8330   30.8700 N.ar     50   A   -0.0251
   1605 C8         27.1140   32.0910   30.0130 C.ar     50   A    0.2006
   1606 N7         25.8290   32.3580   30.0820 N.ar     50   A   -0.6073
   1607 C5         25.7510   33.3480   31.0520 C.ar     50   A    0.0515
   1608 C6         24.6620   34.0580   31.5990 C.ar     50   A    0.7009
   1609 N6         23.3970   33.8570   31.2160 N.pl3    50   A   -0.9019
   1610 N1         24.9290   34.9790   32.5580 N.ar     50   A   -0.7615
   1611 C2         26.1990   35.1700   32.9430 C.ar     50   A    0.5875
   1612 N3         27.3010   34.5600   32.5060 N.ar     50   A   -0.6997
   1613 C4         27.0060   33.6500   31.5550 C.ar     50   A    0.3053
   1614 H5'        30.8031   29.8428   28.6058 H        50   A    0.0679
   1615 H5''       30.5297   28.7274   29.9640 H        50   A    0.0679
   1616 H4'        31.5144   30.9401   30.6391 H        50   A    0.1174
   1617 H3'        28.7200   30.3023   31.6733 H        50   A    0.0615
   1618 H2'        28.9996   32.2300   33.0963 H        50   A    0.0972
   1619 H1'        29.7393   33.7861   30.9999 H        50   A    0.2007
   1620 H8         27.5278   31.3534   29.3413 H        50   A    0.1553
   1621 H2         26.3492   35.9169   33.7085 H        50   A    0.0473
   1622 H61        23.1878   33.1723   30.5036 H        50   A    0.4115
   1623 H62        22.6505   34.3899   31.6390 H        50   A    0.4115
   1624 HO2'       31.2612   32.0855   33.5680 H        50   A    0.4186
   1625 P          29.5970   28.6570   33.4960 P.3      51   G    1.1662
   1626 OP1        30.5920   27.7160   34.0670 O.co2    51   G   -0.7760
   1627 OP2        28.4970   28.1550   32.6310 O.co2    51   G   -0.7760
   1628 O5'        28.9380   29.5190   34.6820 O.3      51   G   -0.4989
   1629 C5'        29.7870   30.1820   35.6280 C.3      51   G    0.0558
   1630 C4'        29.0200   31.1880   36.4670 C.3      51   G    0.1065
   1631 O4'        28.3870   32.1730   35.6170 O.3      51   G   -0.3548
   1632 C3'        27.8500   30.6280   37.2580 C.3      51   G    0.2022
   1633 O3'        28.2850   29.9420   38.4200 O.3      51   G   -0.5246
   1634 C2'        27.0800   31.9050   37.5780 C.3      51   G    0.0670
   1635 O2'        27.6580   32.6970   38.5970 O.3      51   G   -0.6139
   1636 C1'        27.1840   32.6060   36.2320 C.3      51   G    0.0191
   1637 N9         26.0570   32.2720   35.3740 N.ar     51   G    0.0492
   1638 C8         26.0490   31.4960   34.2370 C.ar     51   G    0.1374
   1639 N7         24.8660   31.3810   33.6980 N.ar     51   G   -0.5709
   1640 C5         24.0440   32.1240   34.5340 C.ar     51   G    0.1744
   1641 C6         22.6550   32.3750   34.4610 C.2      51   G    0.4770
   1642 O6         21.8550   31.9760   33.6050 O.2      51   G   -0.5597
   1643 N1         22.2130   33.1770   35.5170 N.am     51   G   -0.4787
   1644 C2         23.0190   33.6750   36.5190 C.2      51   G    0.7657
   1645 N2         22.4200   34.4250   37.4530 N.pl3    51   G   -0.9672
   1646 N3         24.3260   33.4550   36.5950 N.2      51   G   -0.6323
   1647 C4         24.7620   32.6720   35.5730 C.ar     51   G    0.1222
   1648 H5'        30.5773   30.7032   35.0877 H        51   G    0.0679
   1649 H5''       30.2362   29.4381   36.2861 H        51   G    0.0679
   1650 H4'        29.7084   31.6887   37.1478 H        51   G    0.1174
   1651 H3'        27.2488   29.9693   36.6312 H        51   G    0.0615
   1652 H2'        26.0402   31.6773   37.8125 H        51   G    0.0972
   1653 H1'        27.2197   33.6847   36.3842 H        51   G    0.2006
   1654 H8         26.9340   31.0286   33.8312 H        51   G    0.1640
   1655 H1         21.2305   33.4090   35.5485 H        51   G    0.3424
   1656 H21        21.4263   34.5982   37.4008 H        51   G    0.4364
   1657 H22        22.9619   34.8174   38.2096 H        51   G    0.4364
   1658 HO2'       27.5840   32.2407   39.4384 H        51   G    0.4186
   1659 P          27.5720   28.5680   38.8320 P.3      52   U    1.1662
   1660 OP1        28.3350   28.0050   39.9690 O.co2    52   U   -0.7760
   1661 OP2        27.3610   27.7530   37.6120 O.co2    52   U   -0.7760
   1662 O5'        26.1350   29.0460   39.3430 O.3      52   U   -0.4989
   1663 C5'        26.0380   29.9360   40.4400 C.3      52   U    0.0558
   1664 C4'        24.6310   30.4720   40.5380 C.3      52   U    0.1065
   1665 O4'        24.2370   31.0530   39.2730 O.3      52   U   -0.3548
   1666 C3'        23.5710   29.4150   40.7840 C.3      52   U    0.2022
   1667 O3'        23.5530   29.0580   42.1610 O.3      52   U   -0.5246
   1668 C2'        22.3190   30.1720   40.3530 C.3      52   U    0.0670
   1669 O2'        21.8440   31.0630   41.3450 O.3      52   U   -0.6139
   1670 C1'        22.8260   30.9540   39.1410 C.3      52   U    0.0674
   1671 N1         22.4710   30.3070   37.8260 N.am     52   U    0.0418
   1672 C2         21.1610   30.3780   37.3620 C.2      52   U    0.4687
   1673 O2         20.2600   30.9430   37.9620 O.2      52   U   -0.5477
   1674 N3         20.9390   29.7530   36.1550 N.am     52   U   -0.3549
   1675 C4         21.8720   29.0800   35.3780 C.2      52   U    0.5952
   1676 O4         21.5260   28.5690   34.3140 O.2      52   U   -0.5761
   1677 C5         23.2100   29.0520   35.9240 C.2      52   U   -0.3635
   1678 C6         23.4530   29.6490   37.1000 C.2      52   U   -0.1126
   1679 H5'        26.2885   29.4064   41.3592 H        52   U    0.0679
   1680 H5''       26.7324   30.7640   40.2977 H        52   U    0.0679
   1681 H4'        24.5813   31.2295   41.3202 H        52   U    0.1174
   1682 H3'        23.7362   28.5405   40.1547 H        52   U    0.0615
   1683 H2'        21.5342   29.4757   40.0574 H        52   U    0.0972
   1684 H1'        22.3993   31.9567   39.1660 H        52   U    0.1824
   1685 H3         19.9955   29.7881   35.7964 H        52   U    0.3154
   1686 H5         24.0064   28.5551   35.3900 H        52   U    0.1811
   1687 H6         24.4561   29.6161   37.4989 H        52   U    0.2188
   1688 HO2'       21.1246   31.5874   40.9858 H        52   U    0.4186
   1689 P          22.5500   27.9330   42.7010 P.3      53   A    1.1662
   1690 OP1        23.0210   27.5430   44.0530 O.co2    53   A   -0.7760
   1691 OP2        22.3990   26.8950   41.6440 O.co2    53   A   -0.7760
   1692 O5'        21.1600   28.7400   42.8310 O.3      53   A   -0.4989
   1693 C5'        20.3610   28.6230   44.0460 C.3      53   A    0.0558
   1694 C4'        18.8850   28.4240   43.7010 C.3      53   A    0.1065
   1695 O4'        18.2560   29.7400   43.4990 O.3      53   A   -0.3548
   1696 C3'        18.5830   27.5830   42.4230 C.3      53   A    0.2022
   1697 O3'        17.5100   26.6440   42.6760 O.3      53   A   -0.5246
   1698 C2'        18.2200   28.6650   41.3620 C.3      53   A    0.0670
   1699 O2'        17.3340   28.1730   40.3390 O.3      53   A   -0.6139
   1700 C1'        17.5370   29.7300   42.2560 C.3      53   A    0.0394
   1701 H5'        20.7120   27.7686   44.6248 H        53   A    0.0679
   1702 H5''       20.4730   29.5304   44.6394 H        53   A    0.0679
   1703 H4'        18.3993   27.9411   44.5489 H        53   A    0.1174
   1704 H3'        19.4794   27.0461   42.1126 H        53   A    0.0615
   1705 H2'        19.1257   29.0729   40.9132 H        53   A    0.0972
   1706 H1'        16.4935   29.4652   42.4267 H        53   A    0.2007
   1707 H1''       17.5996   30.7095   41.7819 H        53   A    0.0000
   1708 HO2'       17.7912   27.5174   39.8073 H        53   A    0.4186
   1709 P          11.5800   34.2440   31.4970 P.3      54   G    1.1662
   1710 OP1        10.1650   34.0410   31.0920 O.co2    54   G   -0.7760
   1711 OP2        12.2550   35.5430   31.2470 O.co2    54   G   -0.7760
   1712 O5'        11.7440   33.9030   33.0560 O.3      54   G   -0.4989
   1713 C5'        10.9790   34.6220   34.0260 C.3      54   G    0.0558
   1714 C4'        11.6560   34.6500   35.3890 C.3      54   G    0.1065
   1715 O4'        12.1430   33.3310   35.7510 O.3      54   G   -0.3548
   1716 C3'        12.8970   35.5180   35.5040 C.3      54   G    0.2022
   1717 O3'        12.5690   36.9020   35.6060 O.3      54   G   -0.5246
   1718 C2'        13.4910   34.9630   36.7940 C.3      54   G    0.0670
   1719 O2'        12.7970   35.3820   37.9540 O.3      54   G   -0.6139
   1720 C1'        13.2930   33.4680   36.5740 C.3      54   G    0.0191
   1721 N9         14.4400   32.8260   35.9270 N.ar     54   G    0.0492
   1722 C8         14.5520   32.4650   34.6050 C.ar     54   G    0.1374
   1723 N7         15.6950   31.9120   34.3100 N.ar     54   G   -0.5709
   1724 C5         16.3910   31.9080   35.5090 C.ar     54   G    0.1744
   1725 C6         17.6930   31.4300   35.8060 C.2      54   G    0.4770
   1726 O6         18.5090   30.8990   35.0380 O.2      54   G   -0.5597
   1727 N1         18.0190   31.6200   37.1490 N.am     54   G   -0.4787
   1728 C2         17.1930   32.1960   38.0870 C.2      54   G    0.7657
   1729 N2         17.6830   32.2940   39.3310 N.pl3    54   G   -0.9672
   1730 N3         15.9710   32.6470   37.8210 N.2      54   G   -0.6323
   1731 C4         15.6350   32.4710   36.5160 C.ar     54   G    0.1222
   1732 H5'        10.0046   34.1443   34.1283 H        54   G    0.0679
   1733 H5''       10.8377   35.6455   33.6788 H        54   G    0.0679
   1734 H4'        10.9304   34.9737   36.1352 H        54   G    0.1174
   1735 H3'        13.5689   35.3424   34.6639 H        54   G    0.0615
   1736 H2'        14.5509   35.2063   36.8681 H        54   G    0.0972
   1737 H1'        13.1066   32.9860   37.5337 H        54   G    0.2006
   1738 H8         13.7676   32.6244   33.8800 H        54   G    0.1640
   1739 H1         18.9303   31.3114   37.4562 H        54   G    0.3424
   1740 H21        18.6113   31.9532   39.5364 H        54   G    0.4364
   1741 H22        17.1238   32.7086   40.0628 H        54   G    0.4364
   1742 HO2'       12.9283   36.3242   38.0832 H        54   G    0.4186
   1743 P          13.5390   37.9940   34.9410 P.3      55   C    1.1662
   1744 OP1        12.8790   39.3140   35.0550 O.co2    55   C   -0.7760
   1745 OP2        13.9430   37.4870   33.6060 O.co2    55   C   -0.7760
   1746 O5'        14.8330   37.9750   35.8910 O.3      55   C   -0.4989
   1747 C5'        14.7450   38.4100   37.2510 C.3      55   C    0.0558
   1748 C4'        15.8310   37.7890   38.1170 C.3      55   C    0.1065
   1749 O4'        15.9750   36.3710   37.8440 O.3      55   C   -0.3548
   1750 C3'        17.2320   38.3210   37.8860 C.3      55   C    0.2022
   1751 O3'        17.4080   39.5770   38.5180 O.3      55   C   -0.5246
   1752 C2'        18.0710   37.2230   38.5300 C.3      55   C    0.0670
   1753 O2'        18.1000   37.3000   39.9420 O.3      55   C   -0.6139
   1754 C1'        17.3180   35.9720   38.0790 C.3      55   C    0.0066
   1755 N1         17.8990   35.3570   36.8320 N.am     55   C   -0.0484
   1756 C2         19.1310   34.6770   36.8880 C.2      55   C    0.7538
   1757 O2         19.7280   34.5690   37.9660 O.2      55   C   -0.6252
   1758 N3         19.6370   34.1410   35.7480 N.2      55   C   -0.7584
   1759 C4         18.9760   34.2660   34.5940 C.2      55   C    0.8185
   1760 N4         19.5170   33.7230   33.5010 N.pl3    55   C   -0.9530
   1761 C5         17.7290   34.9550   34.5110 C.2      55   C   -0.5215
   1762 C6         17.2360   35.4800   35.6400 C.2      55   C    0.0053
   1763 H5'        14.8477   39.4947   37.2812 H        55   C    0.0679
   1764 H5''       13.7694   38.1336   37.6508 H        55   C    0.0679
   1765 H4'        15.5686   37.9237   39.1663 H        55   C    0.1174
   1766 H3'        17.4455   38.3933   36.8196 H        55   C    0.0615
   1767 H2'        19.0831   37.2274   38.1254 H        55   C    0.0972
   1768 H1'        17.3362   35.2354   38.8822 H        55   C    0.2029
   1769 H5         17.2026   35.0495   33.5727 H        55   C    0.1928
   1770 H6         16.2962   36.0113   35.6099 H        55   C    0.1958
   1771 H41        20.3997   33.2361   33.5630 H        55   C    0.4234
   1772 H42        19.0436   33.7991   32.6121 H        55   C    0.4234
   1773 HO2'       18.5755   38.0897   40.2102 H        55   C    0.4186
   1774 P          18.2450   40.7090   37.7590 P.3      56   U    1.1662
   1775 OP1        18.1770   41.9510   38.5610 O.co2    56   U   -0.7760
   1776 OP2        17.7980   40.7180   36.3470 O.co2    56   U   -0.7760
   1777 O5'        19.7430   40.1410   37.8100 O.3      56   U   -0.4989
   1778 C5'        20.4150   39.9850   39.0620 C.3      56   U    0.0558
   1779 C4'        21.8260   39.4520   38.8780 C.3      56   U    0.1065
   1780 O4'        21.7970   38.0730   38.4330 O.3      56   U   -0.3548
   1781 C3'        22.6410   40.1440   37.8040 C.3      56   U    0.2022
   1782 O3'        23.1460   41.3740   38.2750 O.3      56   U   -0.5246
   1783 C2'        23.7320   39.1150   37.5430 C.3      56   U    0.0670
   1784 O2'        24.7500   39.1130   38.5250 O.3      56   U   -0.6139
   1785 C1'        22.9250   37.8220   37.6060 C.3      56   U    0.0674
   1786 N1         22.4670   37.3410   36.2540 N.am     56   U    0.0418
   1787 C2         23.3540   36.6580   35.4330 C.2      56   U    0.4687
   1788 O2         24.5060   36.4070   35.7450 O.2      56   U   -0.5477
   1789 N3         22.8320   36.2610   34.2220 N.am     56   U   -0.3549
   1790 C4         21.5410   36.4760   33.7530 C.2      56   U    0.5952
   1791 O4         21.2150   36.0660   32.6420 O.2      56   U   -0.5761
   1792 C5         20.6810   37.2000   34.6580 C.2      56   U   -0.3635
   1793 C6         21.1650   37.5920   35.8460 C.2      56   U   -0.1126
   1794 H5'        20.4652   40.9536   39.5593 H        56   U    0.0679
   1795 H5''       19.8504   39.2923   39.6861 H        56   U    0.0679
   1796 H4'        22.3587   39.5117   39.8271 H        56   U    0.1174
   1797 H3'        22.0392   40.2970   36.9081 H        56   U    0.0615
   1798 H2'        24.1585   39.2524   36.5493 H        56   U    0.0972
   1799 H1'        23.5360   37.0467   38.0682 H        56   U    0.1824
   1800 H3         23.4557   35.7583   33.6069 H        56   U    0.3154
   1801 H5         19.6609   37.4233   34.3823 H        56   U    0.1811
   1802 H6         20.5101   38.1284   36.5167 H        56   U    0.2188
   1803 HO2'       25.2478   39.9321   38.4722 H        56   U    0.4186
   1804 P          23.0550   42.6490   37.3190 P.3      57   U    1.1662
   1805 OP1        23.2770   43.8630   38.1380 O.co2    57   U   -0.7760
   1806 OP2        21.8250   42.5180   36.5080 O.co2    57   U   -0.7760
   1807 O5'        24.3090   42.4370   36.3540 O.3      57   U   -0.4989
   1808 C5'        25.6250   42.5240   36.8920 C.3      57   U    0.0558
   1809 C4'        26.5970   41.7080   36.0640 C.3      57   U    0.1065
   1810 O4'        26.0850   40.3630   35.8760 O.3      57   U   -0.3548
   1811 C3'        26.7840   42.1890   34.6380 C.3      57   U    0.2022
   1812 O3'        27.6420   43.3220   34.5630 O.3      57   U   -0.5246
   1813 C2'        27.3820   40.9470   33.9880 C.3      57   U    0.0670
   1814 O2'        28.7470   40.7460   34.3100 O.3      57   U   -0.6139
   1815 C1'        26.5070   39.8700   34.6130 C.3      57   U    0.0674
   1816 N1         25.3120   39.5510   33.7740 N.am     57   U    0.0418
   1817 C2         25.4750   38.7470   32.6620 C.2      57   U    0.4687
   1818 O2         26.5510   38.2760   32.3240 O.2      57   U   -0.5477
   1819 N3         24.3230   38.5120   31.9530 N.am     57   U   -0.3549
   1820 C4         23.0540   38.9890   32.2330 C.2      57   U    0.5952
   1821 O4         22.1150   38.6860   31.5040 O.2      57   U   -0.5761
   1822 C5         22.9620   39.8200   33.4060 C.2      57   U   -0.3635
   1823 C6         24.0710   40.0660   34.1140 C.2      57   U   -0.1126
   1824 H5'        25.9430   43.5666   36.8925 H        57   U    0.0679
   1825 H5''       25.6208   42.1487   37.9153 H        57   U    0.0679
   1826 H4'        27.5630   41.6662   36.5671 H        57   U    0.1174
   1827 H3'        25.8176   42.4193   34.1895 H        57   U    0.0615
   1828 H2'        27.2429   40.9749   32.9073 H        57   U    0.0972
   1829 H1'        27.0974   38.9653   34.7582 H        57   U    0.1824
   1830 H3         24.4113   37.9254   31.1356 H        57   U    0.3154
   1831 H5         22.0134   40.2379   33.7093 H        57   U    0.1811
   1832 H6         23.9954   40.6939   34.9894 H        57   U    0.2188
   1833 HO2'       29.2768   41.4366   33.9051 H        57   U    0.4186
   1834 P          27.3140   44.4440   33.4670 P.3      58   U    1.1662
   1835 OP1        28.5360   45.2630   33.2920 O.co2    58   U   -0.7760
   1836 OP2        26.0310   45.0970   33.8270 O.co2    58   U   -0.7760
   1837 O5'        27.0440   43.5800   32.1380 O.3      58   U   -0.4989
   1838 C5'        28.0540   42.7490   31.5150 C.3      58   U    0.0558
   1839 C4'        27.6900   42.4980   30.0630 C.3      58   U    0.1065
   1840 O4'        26.6050   41.5370   29.9880 O.3      58   U   -0.3548
   1841 C3'        27.2040   43.7720   29.3730 C.3      58   U    0.2022
   1842 O3'        28.1970   44.3050   28.4830 O.3      58   U   -0.5246
   1843 C2'        25.8990   43.4030   28.6670 C.3      58   U    0.0670
   1844 O2'        25.9330   43.6610   27.2750 O.3      58   U   -0.6139
   1845 C1'        25.6960   41.9120   28.9700 C.3      58   U    0.0674
   1846 N1         24.2750   41.6160   29.3890 N.am     58   U    0.0418
   1847 C2         23.5990   40.5580   28.8100 C.2      58   U    0.4687
   1848 O2         24.1000   39.8140   27.9880 O.2      58   U   -0.5477
   1849 N3         22.2990   40.3910   29.2380 N.am     58   U   -0.3549
   1850 C4         21.6120   41.1730   30.1530 C.2      58   U    0.5952
   1851 O4         20.4500   40.8980   30.4360 O.2      58   U   -0.5761
   1852 C5         22.3770   42.2630   30.7070 C.2      58   U   -0.3635
   1853 C6         23.6460   42.4420   30.3080 C.2      58   U   -0.1126
   1854 H5'        29.0186   43.2542   31.5639 H        58   U    0.0679
   1855 H5''       28.1163   41.7973   32.0427 H        58   U    0.0679
   1856 H4'        28.5587   42.1069   29.5333 H        58   U    0.1174
   1857 H3'        26.9861   44.5186   30.1367 H        58   U    0.0615
   1858 H2'        25.0819   43.9700   29.1130 H        58   U    0.0972
   1859 H1'        25.9220   41.3386   28.0710 H        58   U    0.1824
   1860 H3         21.7915   39.6132   28.8410 H        58   U    0.3154
   1861 H5         21.9340   42.9273   31.4343 H        58   U    0.1811
   1862 H6         24.2037   43.2688   30.7225 H        58   U    0.2188
   1863 HO2'       26.0610   44.6007   27.1263 H        58   U    0.4186
   1864 P          29.4890   45.0610   29.0800 P.3      59   G    1.1662
   1865 OP1        30.5170   44.0320   29.3960 O.co2    59   G   -0.7760
   1866 OP2        29.0110   46.0040   30.1280 O.co2    59   G   -0.7760
   1867 O5'        30.0300   45.9360   27.8520 O.3      59   G   -0.4989
   1868 C5'        29.3070   47.0650   27.3930 C.3      59   G    0.0558
   1869 C4'        29.8040   47.4710   26.0250 C.3      59   G    0.1065
   1870 O4'        29.4330   46.4690   25.0590 O.3      59   G   -0.3548
   1871 C3'        29.1650   48.7330   25.5150 C.3      59   G    0.2022
   1872 O3'        29.9250   49.8090   25.9660 O.3      59   G   -0.5246
   1873 C2'        29.2960   48.5940   24.0170 C.3      59   G    0.0670
   1874 O2'        30.5740   49.0180   23.5970 O.3      59   G   -0.6139
   1875 C1'        29.1760   47.0920   23.8200 C.3      59   G    0.0191
   1876 N9         27.8850   46.6330   23.3240 N.ar     59   G    0.0492
   1877 C8         26.7390   46.4230   24.0500 C.ar     59   G    0.1374
   1878 N7         25.7450   45.9790   23.3340 N.ar     59   G   -0.5709
   1879 C5         26.2690   45.8820   22.0480 C.ar     59   G    0.1744
   1880 C6         25.6640   45.4550   20.8380 C.2      59   G    0.4770
   1881 O6         24.5030   45.0720   20.6560 O.2      59   G   -0.5597
   1882 N1         26.5450   45.5030   19.7620 N.am     59   G   -0.4787
   1883 C2         27.8530   45.9150   19.8390 C.2      59   G    0.7657
   1884 N2         28.5500   45.8900   18.6910 N.pl3    59   G   -0.9672
   1885 N3         28.4370   46.3220   20.9620 N.2      59   G   -0.6323
   1886 C4         27.5880   46.2780   22.0260 C.ar     59   G    0.1222
   1887 H5'        28.2475   46.8161   27.3335 H        59   G    0.0679
   1888 H5''       29.4463   47.8920   28.0892 H        59   G    0.0679
   1889 H4'        30.8878   47.5853   26.0431 H        59   G    0.1174
   1890 H3'        28.1232   48.8140   25.8252 H        59   G    0.0615
   1891 H2'        28.5043   49.1308   23.4944 H        59   G    0.0972
   1892 H1'        29.9445   46.7777   23.1138 H        59   G    0.2006
   1893 H8         26.6682   46.6079   25.1117 H        59   G    0.1640
   1894 H1         26.1974   45.2139   18.8588 H        59   G    0.3424
   1895 H21        28.1068   45.5806   17.8378 H        59   G    0.4364
   1896 H22        29.5172   46.1806   18.6810 H        59   G    0.4364
   1897 HO2'       31.2287   48.7536   24.2475 H        59   G    0.4186
   1898 P          29.1560   51.0170   26.6630 P.3      60   A    1.1662
   1899 OP1        29.9480   51.3910   27.8580 O.co2    60   A   -0.7760
   1900 OP2        27.7280   50.6400   26.7970 O.co2    60   A   -0.7760
   1901 O5'        29.2400   52.1930   25.5770 O.3      60   A   -0.4989
   1902 C5'        30.4800   52.5570   24.9620 C.3      60   A    0.0558
   1903 C4'        30.3060   52.7690   23.4680 C.3      60   A    0.1065
   1904 O4'        29.8820   51.5220   22.8820 O.3      60   A   -0.3548
   1905 C3'        29.2390   53.7700   23.0320 C.3      60   A    0.2022
   1906 O3'        29.7740   55.0830   22.9580 O.3      60   A   -0.5246
   1907 C2'        28.9190   53.2880   21.6310 C.3      60   A    0.0670
   1908 O2'        29.8590   53.7740   20.7010 O.3      60   A   -0.6139
   1909 C1'        29.0750   51.7800   21.7550 C.3      60   A    0.0394
   1910 N9         27.8030   51.0880   21.8930 N.ar     60   A   -0.0251
   1911 C8         26.9500   51.1380   22.9510 C.ar     60   A    0.2006
   1912 N7         25.8690   50.4220   22.7900 N.ar     60   A   -0.6073
   1913 C5         26.0180   49.8700   21.5330 C.ar     60   A    0.0515
   1914 C6         25.2070   49.0080   20.7720 C.ar     60   A    0.7009
   1915 N6         24.0350   48.5390   21.2050 N.pl3    60   A   -0.9019
   1916 N1         25.6440   48.6420   19.5500 N.ar     60   A   -0.7615
   1917 C2         26.8210   49.1070   19.1230 C.ar     60   A    0.5875
   1918 N3         27.6760   49.9200   19.7490 N.ar     60   A   -0.6997
   1919 C4         27.2060   50.2730   20.9620 C.ar     60   A    0.3053
   1920 H5'        31.2064   51.7611   25.1266 H        60   A    0.0679
   1921 H5''       30.8481   53.4778   25.4145 H        60   A    0.0679
   1922 H4'        31.2637   53.0583   23.0354 H        60   A    0.1174
   1923 H3'        28.3631   53.7299   23.6796 H        60   A    0.0615
   1924 H2'        27.9029   53.5576   21.3431 H        60   A    0.0972
   1925 H1'        29.5834   51.4057   20.8664 H        60   A    0.2007
   1926 H8         27.1478   51.7159   23.8417 H        60   A    0.1553
   1927 H2         27.1221   48.7815   18.1382 H        60   A    0.0473
   1928 H61        23.6922   48.8016   22.1180 H        60   A    0.4115
   1929 H62        23.4908   47.9215   20.6197 H        60   A    0.4115
   1930 HO2'       29.7212   54.7148   20.5686 H        60   A    0.4186
   1931 P          29.0380   56.3110   23.6780 P.3      61   U    1.1662
   1932 OP1        29.8700   57.5170   23.4470 O.co2    61   U   -0.7760
   1933 OP2        28.7320   55.8920   25.0660 O.co2    61   U   -0.7760
   1934 O5'        27.6290   56.4650   22.9120 O.3      61   U   -0.4989
   1935 C5'        27.5590   56.7030   21.5030 C.3      61   U    0.0558
   1936 C4'        27.6020   58.1840   21.1710 C.3      61   U    0.1065
   1937 O4'        27.8710   58.3740   19.7560 O.3      61   U   -0.3548
   1938 C3'        26.3150   58.9460   21.4300 C.3      61   U    0.2022
   1939 O3'        26.6480   60.2940   21.7280 O.3      61   U   -0.5246
   1940 C2'        25.6270   58.8680   20.0770 C.3      61   U    0.0670
   1941 O2'        24.6490   59.8730   19.9140 O.3      61   U   -0.6139
   1942 C1'        26.8330   59.1520   19.1950 C.3      61   U    0.0674
   1943 N1         26.6720   58.8400   17.7310 N.am     61   U    0.0418
   1944 C2         27.3910   59.5780   16.8030 C.2      61   U    0.4687
   1945 O2         28.1560   60.4780   17.1010 O.2      61   U   -0.5477
   1946 N3         27.1820   59.2300   15.4910 N.am     61   U   -0.3549
   1947 C4         26.3500   58.2360   15.0110 C.2      61   U    0.5952
   1948 O4         26.2750   58.0400   13.8010 O.2      61   U   -0.5761
   1949 C5         25.6300   57.5080   16.0320 C.2      61   U   -0.3635
   1950 C6         25.8150   57.8290   17.3250 C.2      61   U   -0.1126
   1951 H5'        26.6276   56.2844   21.1218 H        61   U    0.0679
   1952 H5''       28.3977   56.2052   21.0164 H        61   U    0.0679
   1953 H4'        28.4044   58.6478   21.7448 H        61   U    0.1174
   1954 H3'        25.7194   58.4873   22.2193 H        61   U    0.0615
   1955 H2'        25.2178   57.8750   19.8908 H        61   U    0.0972
   1956 H1'        27.0960   60.2048   19.2973 H        61   U    0.1824
   1957 H3         27.6934   59.7596   14.7995 H        61   U    0.3154
   1958 H5         24.9503   56.7143   15.7590 H        61   U    0.1811
   1959 H6         25.2733   57.2761   18.0782 H        61   U    0.2188
   1960 HO2'       23.9058   59.5189   19.4201 H        61   U    0.4186
   1961 P          26.2830   60.9460   23.1420 P.3      62   U    1.1662
   1962 OP1        27.3600   60.5840   24.0880 O.co2    62   U   -0.7760
   1963 OP2        24.8710   60.6240   23.4670 O.co2    62   U   -0.7760
   1964 O5'        26.3900   62.5090   22.8200 O.3      62   U   -0.4989
   1965 C5'        25.7360   63.0590   21.6830 C.3      62   U    0.0558
   1966 C4'        26.7060   63.8850   20.8610 C.3      62   U    0.1065
   1967 O4'        27.3460   63.0370   19.8720 O.3      62   U   -0.3548
   1968 C3'        26.0620   64.9850   20.0370 C.3      62   U    0.2022
   1969 O3'        25.8770   66.1490   20.8030 O.3      62   U   -0.5246
   1970 C2'        27.0920   65.1890   18.9350 C.3      62   U    0.0670
   1971 O2'        28.2170   65.9240   19.3690 O.3      62   U   -0.6139
   1972 C1'        27.4970   63.7490   18.6540 C.3      62   U    0.0674
   1973 N1         26.7060   63.0660   17.5740 N.am     62   U    0.0418
   1974 C2         27.0510   63.2640   16.2510 C.2      62   U    0.4687
   1975 O2         27.9610   63.9940   15.9000 O.2      62   U   -0.5477
   1976 N3         26.2790   62.5810   15.3400 N.am     62   U   -0.3549
   1977 C4         25.2180   61.7330   15.6140 C.2      62   U    0.5952
   1978 O4         24.6200   61.1780   14.6960 O.2      62   U   -0.5761
   1979 C5         24.9190   61.5780   17.0130 C.2      62   U   -0.3635
   1980 C6         25.6570   62.2350   17.9160 C.2      62   U   -0.1126
   1981 H5'        24.9148   63.6946   22.0142 H        62   U    0.0679
   1982 H5''       25.3406   62.2503   21.0684 H        62   U    0.0679
   1983 H4'        27.4632   64.3162   21.5159 H        62   U    0.1174
   1984 H3'        25.1142   64.6463   19.6186 H        62   U    0.0615
   1985 H2'        26.6396   65.6476   18.0557 H        62   U    0.0972
   1986 H1'        28.5501   63.7344   18.3732 H        62   U    0.1824
   1987 H3         26.5107   62.7119   14.3657 H        62   U    0.3154
   1988 H5         24.1085   60.9389   17.3308 H        62   U    0.1811
   1989 H6         25.4209   62.1093   18.9624 H        62   U    0.2188
   1990 HO2'       27.9583   66.8315   19.5453 H        62   U    0.4186
   1991 P          24.6420   67.0940   20.4500 P.3      63   U    1.1662
   1992 OP1        24.4690   68.0580   21.5620 O.co2    63   U   -0.7760
   1993 OP2        23.5190   66.2200   20.0540 O.co2    63   U   -0.7760
   1994 O5'        25.1430   67.8890   19.1530 O.3      63   U   -0.4989
   1995 C5'        26.2260   68.8180   19.2510 C.3      63   U    0.0558
   1996 C4'        26.7310   69.2570   17.8830 C.3      63   U    0.1065
   1997 O4'        27.2350   68.1180   17.1310 O.3      63   U   -0.3548
   1998 C3'        25.6950   69.8600   16.9460 C.3      63   U    0.2022
   1999 O3'        25.3960   71.2070   17.2660 O.3      63   U   -0.5246
   2000 C2'        26.4300   69.7380   15.6190 C.3      63   U    0.0670
   2001 O2'        27.4840   70.6740   15.4880 O.3      63   U   -0.6139
   2002 C1'        26.9880   68.3230   15.7460 C.3      63   U    0.0674
   2003 N1         26.0540   67.2560   15.2150 N.am     63   U    0.0418
   2004 C2         25.8140   67.1610   13.8500 C.2      63   U    0.4687
   2005 O2         26.3140   67.9050   13.0240 O.2      63   U   -0.5477
   2006 N3         24.9450   66.1580   13.4800 N.am     63   U   -0.3549
   2007 C4         24.3100   65.2530   14.3160 C.2      63   U    0.5952
   2008 O4         23.5610   64.4050   13.8480 O.2      63   U   -0.5761
   2009 C5         24.6060   65.4110   15.7150 C.2      63   U   -0.3635
   2010 C6         25.4490   66.3810   16.1000 C.2      63   U   -0.1126
   2011 H5'        25.8861   69.6971   19.7986 H        63   U    0.0679
   2012 H5''       27.0449   68.3525   19.7994 H        63   U    0.0679
   2013 H4'        27.5406   69.9738   18.0203 H        63   U    0.1174
   2014 H3'        24.7871   69.2568   16.9386 H        63   U    0.0615
   2015 H2'        25.7370   69.8106   14.7808 H        63   U    0.0972
   2016 H1'        27.9332   68.2660   15.2061 H        63   U    0.1824
   2017 H3         24.7495   66.0730   12.4928 H        63   U    0.3154
   2018 H5         24.1550   64.7567   16.4464 H        63   U    0.1811
   2019 H6         25.6662   66.4841   17.1529 H        63   U    0.2188
   2020 HO2'       27.1192   71.5585   15.4091 H        63   U    0.4186
   2021 P          23.9130   71.7500   17.0000 P.3      64   G    1.1662
   2022 OP1        23.8120   73.1110   17.5870 O.co2    64   G   -0.7760
   2023 OP2        22.9660   70.6900   17.4120 O.co2    64   G   -0.7760
   2024 O5'        23.8300   71.8600   15.4030 O.3      64   G   -0.4989
   2025 C5'        24.5440   72.8730   14.6910 C.3      64   G    0.0558
   2026 C4'        24.5480   72.5750   13.2020 C.3      64   G    0.1065
   2027 O4'        25.0680   71.2380   12.9650 O.3      64   G   -0.3548
   2028 C3'        23.1780   72.5220   12.5510 C.3      64   G    0.2022
   2029 O3'        22.6770   73.8110   12.2680 O.3      64   G   -0.5246
   2030 C2'        23.4930   71.7350   11.2860 C.3      64   G    0.0670
   2031 O2'        24.1760   72.4990   10.3140 O.3      64   G   -0.6139
   2032 C1'        24.4010   70.6540   11.8560 C.3      64   G    0.0191
   2033 N9         23.6360   69.4840   12.2900 N.ar     64   G    0.0492
   2034 C8         23.3950   69.0640   13.5770 C.ar     64   G    0.1374
   2035 N7         22.6650   67.9800   13.6450 N.ar     64   G   -0.5709
   2036 C5         22.3900   67.6710   12.3200 C.ar     64   G    0.1744
   2037 C6         21.6430   66.6050   11.7670 C.2      64   G    0.4770
   2038 O6         21.0430   65.7020   12.3620 O.2      64   G   -0.5597
   2039 N1         21.6180   66.6570   10.3760 N.am     64   G   -0.4787
   2040 C2         22.2410   67.6180    9.6150 C.2      64   G    0.7657
   2041 N2         22.1080   67.5090    8.2920 N.pl3    64   G   -0.9672
   2042 N3         22.9460   68.6190   10.1150 N.2      64   G   -0.6323
   2043 C4         22.9790   68.5870   11.4730 C.ar     64   G    0.1222
   2044 H5'        25.5718   72.9082   15.0523 H        64   G    0.0679
   2045 H5''       24.0681   73.8382   14.8639 H        64   G    0.0679
   2046 H4'        25.1700   73.3057   12.6850 H        64   G    0.1174
   2047 H3'        22.4784   71.9704   13.1790 H        64   G    0.0615
   2048 H2'        22.5868   71.2975   10.8671 H        64   G    0.0972
   2049 H1'        25.1319   70.3557   11.1044 H        64   G    0.2006
   2050 H8         23.7720   69.5793   14.4481 H        64   G    0.1640
   2051 H1         21.1044   65.9357    9.8901 H        64   G    0.3424
   2052 H21        21.5715   66.7487    7.8993 H        64   G    0.4364
   2053 H22        22.5438   68.1868    7.6831 H        64   G    0.4364
   2054 HO2'       24.4619   71.9253    9.5993 H        64   G    0.4186
   2055 P          21.0910   74.0220   12.1820 P.3      65   G    1.1662
   2056 OP1        20.8340   75.4620   11.9220 O.co2    65   G   -0.7760
   2057 OP2        20.4860   73.3510   13.3560 O.co2    65   G   -0.7760
   2058 O5'        20.6690   73.1680   10.8960 O.3      65   G   -0.4989
   2059 C5'        21.0470   73.5640    9.5800 C.3      65   G    0.0558
   2060 C4'        20.3380   72.6910    8.5670 C.3      65   G    0.1065
   2061 O4'        20.7630   71.3120    8.7170 O.3      65   G   -0.3548
   2062 C3'        18.8380   72.6090    8.7680 C.3      65   G    0.2022
   2063 O3'        18.1970   73.7290    8.2060 O.3      65   G   -0.5246
   2064 C2'        18.5060   71.3390    8.0060 C.3      65   G    0.0670
   2065 O2'        18.4810   71.5590    6.6090 O.3      65   G   -0.6139
   2066 C1'        19.6830   70.4480    8.3870 C.3      65   G    0.0191
   2067 N9         19.4090   69.5550    9.5160 N.ar     65   G    0.0492
   2068 C8         19.6940   69.7900   10.8380 C.ar     65   G    0.1374
   2069 N7         19.3440   68.8160   11.6280 N.ar     65   G   -0.5709
   2070 C5         18.7890   67.8660   10.7810 C.ar     65   G    0.1744
   2071 C6         18.2450   66.5840   11.0710 C.2      65   G    0.4770
   2072 O6         18.1310   66.0210   12.1730 O.2      65   G   -0.5597
   2073 N1         17.7880   65.9410    9.9200 N.am     65   G   -0.4787
   2074 C2         17.8550   66.4650    8.6480 C.2      65   G    0.7657
   2075 N2         17.3700   65.6930    7.6600 N.pl3    65   G   -0.9672
   2076 N3         18.3710   67.6620    8.3670 N.2      65   G   -0.6323
   2077 C4         18.8210   68.3060    9.4750 C.ar     65   G    0.1222
   2078 H5'        22.1251   73.4537    9.4631 H        65   G    0.0679
   2079 H5''       20.7688   74.6057    9.4200 H        65   G    0.0679
   2080 H4'        20.5586   73.0395    7.5580 H        65   G    0.1174
   2081 H3'        18.5905   72.5066    9.8246 H        65   G    0.0615
   2082 H2'        17.5646   70.9113    8.3510 H        65   G    0.0972
   2083 H1'        19.9642   69.8468    7.5224 H        65   G    0.2006
   2084 H8         20.1639   70.6967   11.1895 H        65   G    0.1640
   2085 H1         17.3781   65.0242   10.0275 H        65   G    0.3424
   2086 H21        16.9819   64.7851    7.8727 H        65   G    0.4364
   2087 H22        17.3937   66.0209    6.7050 H        65   G    0.4364
   2088 HO2'       18.3951   70.7180    6.1541 H        65   G    0.4186
   2089 P          16.7770   74.1710    8.7900 P.3      66   U    1.1662
   2090 OP1        16.4330   75.4830    8.1950 O.co2    66   U   -0.7760
   2091 OP2        16.8230   74.0130   10.2610 O.co2    66   U   -0.7760
   2092 O5'        15.7850   73.0570    8.2150 O.3      66   U   -0.4989
   2093 C5'        15.4410   73.0440    6.8380 C.3      66   U    0.0558
   2094 C4'        14.6320   71.8060    6.5070 C.3      66   U    0.1065
   2095 O4'        15.3880   70.6110    6.8270 O.3      66   U   -0.3548
   2096 C3'        13.3720   71.6330    7.3300 C.3      66   U    0.2022
   2097 O3'        12.3510   72.4650    6.8540 O.3      66   U   -0.5246
   2098 C2'        13.0750   70.1630    7.0910 C.3      66   U    0.0670
   2099 O2'        12.4910   69.9270    5.8260 O.3      66   U   -0.6139
   2100 C1'        14.4840   69.5700    7.1610 C.3      66   U    0.0674
   2101 N1         14.8070   69.0350    8.5220 N.am     66   U    0.0418
   2102 C2         14.3320   67.7880    8.8750 C.2      66   U    0.4687
   2103 O2         13.6730   67.0910    8.1250 O.2      66   U   -0.5477
   2104 N3         14.6600   67.3770   10.1470 N.am     66   U   -0.3549
   2105 C4         15.3950   68.0800   11.0880 C.2      66   U    0.5952
   2106 O4         15.6100   67.5820   12.1910 O.2      66   U   -0.5761
   2107 C5         15.8480   69.3770   10.6510 C.2      66   U   -0.3635
   2108 C6         15.5420   69.7960    9.4140 C.2      66   U   -0.1126
   2109 H5'        14.8509   73.9308    6.6070 H        66   U    0.0679
   2110 H5''       16.3515   73.0506    6.2388 H        66   U    0.0679
   2111 H4'        14.3795   71.8064    5.4467 H        66   U    0.1174
   2112 H3'        13.5680   71.8232    8.3852 H        66   U    0.0615
   2113 H2'        12.4474   69.7617    7.8867 H        66   U    0.0972
   2114 H1'        14.5732   68.7676    6.4287 H        66   U    0.1824
   2115 H3         14.3291   66.4640   10.4246 H        66   U    0.3154
   2116 H5         16.4273   70.0043   11.3122 H        66   U    0.1811
   2117 H6         15.8846   70.7709    9.1001 H        66   U    0.2188
   2118 HO2'       11.6095   70.3066    5.8042 H        66   U    0.4186
   2119 P          11.5080   73.3000    7.9220 P.3      67   G    1.1662
   2120 OP1        10.7580   74.3490    7.1960 O.co2    67   G   -0.7760
   2121 OP2        12.4220   73.6820    9.0260 O.co2    67   G   -0.7760
   2122 O5'        10.4810   72.2070    8.4840 O.3      67   G   -0.4989
   2123 C5'         9.5340   71.5970    7.6150 C.3      67   G    0.0558
   2124 C4'         9.0060   70.3120    8.2190 C.3      67   G    0.1065
   2125 O4'        10.1180   69.4370    8.5340 O.3      67   G   -0.3548
   2126 C3'         8.2760   70.4700    9.5430 C.3      67   G    0.2022
   2127 O3'         6.9180   70.8130    9.3290 O.3      67   G   -0.5246
   2128 C2'         8.4100   69.0700   10.1290 C.3      67   G    0.0670
   2129 O2'         7.4560   68.1630    9.6060 O.3      67   G   -0.6139
   2130 C1'         9.8250   68.6870    9.6990 C.3      67   G    0.0191
   2131 N9         10.8180   68.9980   10.7240 N.ar     67   G    0.0492
   2132 C8         11.5530   70.1530   10.8380 C.ar     67   G    0.1374
   2133 N7         12.3560   70.1590   11.8650 N.ar     67   G   -0.5709
   2134 C5         12.1370   68.9330   12.4770 C.ar     67   G    0.1744
   2135 C6         12.7250   68.3780   13.6380 C.2      67   G    0.4770
   2136 O6         13.5820   68.8870   14.3710 O.2      67   G   -0.5597
   2137 N1         12.2300   67.1030   13.9220 N.am     67   G   -0.4787
   2138 C2         11.2800   66.4510   13.1710 C.2      67   G    0.7657
   2139 N2         10.9200   65.2310   13.5890 N.pl3    67   G   -0.9672
   2140 N3         10.7190   66.9620   12.0800 N.2      67   G   -0.6323
   2141 C4         11.1910   68.2040   11.7900 C.ar     67   G    0.1222
   2142 H5'         8.7034   72.2837    7.4519 H        67   G    0.0679
   2143 H5''       10.0114   71.3764    6.6603 H        67   G    0.0679
   2144 H4'         8.3502   69.8186    7.5017 H        67   G    0.1174
   2145 H3'         8.7700   71.2073   10.1759 H        67   G    0.0615
   2146 H2'         8.3415   69.1065   11.2162 H        67   G    0.0972
   2147 H1'         9.8607   67.6226    9.4668 H        67   G    0.2006
   2148 H8         11.4733   70.9765   10.1438 H        67   G    0.1640
   2149 H1         12.5948   66.6272   14.7348 H        67   G    0.3424
   2150 H21        11.3420   64.8360   14.4172 H        67   G    0.4364
   2151 H22        10.2264   64.7057   13.0761 H        67   G    0.4364
   2152 HO2'        6.7595   68.0238   10.2519 H        67   G    0.4186
   2153 P           6.1660   71.7980   10.3440 P.3      68   A    1.1662
   2154 OP1         4.7210   71.7650   10.0160 O.co2    68   A   -0.7760
   2155 OP2         6.8810   73.0960   10.3460 O.co2    68   A   -0.7760
   2156 O5'         6.3930   71.1090   11.7710 O.3      68   A   -0.4989
   2157 C5'         5.8180   71.6980   12.9330 C.3      68   A    0.0558
   2158 C4'         5.2090   70.6440   13.8350 C.3      68   A    0.1065
   2159 O4'         4.0700   70.0360   13.1830 O.3      68   A   -0.3548
   2160 C3'         6.1330   69.4830   14.1510 C.3      68   A    0.2022
   2161 O3'         6.9800   69.8170   15.2530 O.3      68   A   -0.5246
   2162 C2'         5.1490   68.3590   14.4740 C.3      68   A    0.0670
   2163 O2'         4.8250   68.2610   15.8460 O.3      68   A   -0.6139
   2164 C1'         3.9150   68.7040   13.6340 C.3      68   A    0.0394
   2165 N9          3.7900   67.8330   12.4680 N.ar     68   A   -0.0251
   2166 C8          3.8450   68.1960   11.1500 C.ar     68   A    0.2006
   2167 N7          3.7270   67.1900   10.3140 N.ar     68   A   -0.6073
   2168 C5          3.5950   66.0850   11.1390 C.ar     68   A    0.0515
   2169 C6          3.4340   64.7040   10.8740 C.ar     68   A    0.7009
   2170 N6          3.3700   64.1890    9.6420 N.pl3    68   A   -0.9019
   2171 N1          3.3340   63.8650   11.9310 N.ar     68   A   -0.7615
   2172 C2          3.3910   64.3780   13.1690 C.ar     68   A    0.5875
   2173 N3          3.5370   65.6520   13.5410 N.ar     68   A   -0.6997
   2174 C4          3.6340   66.4630   12.4710 C.ar     68   A    0.3053
   2175 H5'         5.0403   72.3986   12.6290 H        68   A    0.0679
   2176 H5''        6.5908   72.2363   13.4818 H        68   A    0.0679
   2177 H4'         4.8849   71.1100   14.7656 H        68   A    0.1174
   2178 H3'         6.7310   69.2248   13.2770 H        68   A    0.0615
   2179 H2'         5.5624   67.4098   14.1332 H        68   A    0.0972
   2180 H1'         3.0183   68.6261   14.2488 H        68   A    0.2007
   2181 H8          3.9739   69.2182   10.8261 H        68   A    0.1553
   2182 H2          3.3074   63.6634   13.9745 H        68   A    0.0473
   2183 H61         3.4398   64.7950    8.8371 H        68   A    0.4115
   2184 H62         3.2518   63.1939    9.5162 H        68   A    0.4115
   2185 HO2'        4.4721   69.0997   16.1519 H        68   A    0.4186
   2186 P           8.5730   69.6850   15.1390 P.3      69   A    1.1662
   2187 OP1         9.1890   70.6240   16.1020 O.co2    69   A   -0.7760
   2188 OP2         8.9430   69.7750   13.7120 O.co2    69   A   -0.7760
   2189 O5'         8.8210   68.1880   15.6370 O.3      69   A   -0.4989
   2190 C5'         8.1580   67.7100   16.8070 C.3      69   A    0.0558
   2191 C4'         7.7870   66.2420   16.6820 C.3      69   A    0.1065
   2192 O4'         6.8470   66.0610   15.5970 O.3      69   A   -0.3548
   2193 C3'         8.9500   65.3270   16.3570 C.3      69   A    0.2022
   2194 O3'         9.5570   64.8850   17.5580 O.3      69   A   -0.5246
   2195 C2'         8.2990   64.1780   15.5930 C.3      69   A    0.0670
   2196 O2'         7.9140   63.1270   16.4500 O.3      69   A   -0.6139
   2197 C1'         7.0690   64.8190   14.9510 C.3      69   A    0.0394
   2198 N9          7.1900   65.0450   13.5030 N.ar     69   A   -0.0251
   2199 C8          7.6550   66.1750   12.8850 C.ar     69   A    0.2006
   2200 N7          7.6550   66.1110   11.5740 N.ar     69   A   -0.6073
   2201 C5          7.1510   64.8520   11.2990 C.ar     69   A    0.0515
   2202 C6          6.8940   64.1710   10.0870 C.ar     69   A    0.7009
   2203 N6          7.1350   64.6960    8.8820 N.pl3    69   A   -0.9019
   2204 N1          6.3850   62.9220   10.1570 N.ar     69   A   -0.7615
   2205 C2          6.1520   62.3900   11.3650 C.ar     69   A    0.5875
   2206 N3          6.3510   62.9330   12.5710 N.ar     69   A   -0.6997
   2207 C4          6.8570   64.1780   12.4740 C.ar     69   A    0.3053
   2208 H5'         7.2493   68.2921   16.9607 H        69   A    0.0679
   2209 H5''        8.8146   67.8399   17.6673 H        69   A    0.0679
   2210 H4'         7.3242   65.9119   17.6120 H        69   A    0.1174
   2211 H3'         9.6768   65.8411   15.7280 H        69   A    0.0615
   2212 H2'         8.9754   63.8071   14.8229 H        69   A    0.0972
   2213 H1'         6.2081   64.1752   15.1311 H        69   A    0.2007
   2214 H8          7.9928   67.0443   13.4296 H        69   A    0.1553
   2215 H2          5.7493   61.3879   11.3645 H        69   A    0.0473
   2216 H61         7.5182   65.6273    8.8043 H        69   A    0.4115
   2217 H62         6.9340   64.1615    8.0489 H        69   A    0.4115
   2218 HO2'        8.6952   62.7339   16.8459 H        69   A    0.4186
   2219 P          11.1520   64.8460   17.6440 P.3      70   A    1.1662
   2220 OP1        11.5670   64.2930   18.9560 O.co2    70   A   -0.7760
   2221 OP2        11.6340   66.1740   17.2010 O.co2    70   A   -0.7760
   2222 O5'        11.5380   63.7730   16.5280 O.3      70   A   -0.4989
   2223 C5'        11.2850   62.3990   16.7600 C.3      70   A    0.0558
   2224 C4'        12.2700   61.5620   15.9770 C.3      70   A    0.1065
   2225 O4'        12.1590   61.8910   14.5790 O.3      70   A   -0.3548
   2226 C3'        13.7220   61.8270   16.3300 C.3      70   A    0.2022
   2227 O3'        14.1420   60.8560   17.2760 O.3      70   A   -0.5246
   2228 C2'        14.4820   61.7680   14.9900 C.3      70   A    0.0670
   2229 O2'        15.4200   60.7100   14.8870 O.3      70   A   -0.6139
   2230 C1'        13.3820   61.5990   13.9410 C.3      70   A    0.0394
   2231 N9         13.4840   62.5040   12.7990 N.ar     70   A   -0.0251
   2232 C8         13.7690   63.8440   12.8280 C.ar     70   A    0.2006
   2233 N7         13.7700   64.4110   11.6450 N.ar     70   A   -0.6073
   2234 C5         13.4510   63.3730   10.7790 C.ar     70   A    0.0515
   2235 C6         13.2880   63.3140    9.3790 C.ar     70   A    0.7009
   2236 N6         13.4390   64.3730    8.5870 N.pl3    70   A   -0.9019
   2237 N1         12.9690   62.1250    8.8230 N.ar     70   A   -0.7615
   2238 C2         12.8220   61.0610    9.6200 C.ar     70   A    0.5875
   2239 N3         12.9500   60.9880   10.9470 N.ar     70   A   -0.6997
   2240 C4         13.2660   62.1900   11.4730 C.ar     70   A    0.3053
   2241 H5'        10.2709   62.1583   16.4411 H        70   A    0.0679
   2242 H5''       11.3915   62.1849   17.8234 H        70   A    0.0679
   2243 H4'        12.0465   60.5050   16.1218 H        70   A    0.1174
   2244 H3'        13.8177   62.8234   16.7614 H        70   A    0.0615
   2245 H2'        14.9922   62.7170   14.8250 H        70   A    0.0972
   2246 H1'        13.3711   60.5678   13.5881 H        70   A    0.2007
   2247 H8         13.9739   64.3837   13.7408 H        70   A    0.1553
   2248 H2         12.5653   60.1369    9.1235 H        70   A    0.0473
   2249 H61        13.6793   65.2702    8.9838 H        70   A    0.4115
   2250 H62        13.3133   64.2794    7.5892 H        70   A    0.4115
   2251 HO2'       15.9082   60.7941   14.0647 H        70   A    0.4186
   2252 P          14.8970   61.3300   18.5970 P.3      71   U    1.1662
   2253 OP1        15.5010   60.1400   19.2400 O.co2    71   U   -0.7760
   2254 OP2        13.9680   62.2090   19.3480 O.co2    71   U   -0.7760
   2255 O5'        16.0770   62.2360   18.0150 O.3      71   U   -0.4989
   2256 C5'        17.1670   62.6060   18.8370 C.3      71   U    0.0558
   2257 C4'        18.4910   62.0720   18.3100 C.3      71   U    0.1065
   2258 O4'        19.3830   61.8950   19.4390 O.3      71   U   -0.3548
   2259 C3'        18.4550   60.7280   17.5790 C.3      71   U    0.2022
   2260 O3'        19.3890   60.7050   16.4720 O.3      71   U   -0.5246
   2261 C2'        18.8660   59.7300   18.6620 C.3      71   U    0.0670
   2262 O2'        19.5490   58.5980   18.1470 O.3      71   U   -0.6139
   2263 C1'        19.8210   60.5580   19.5130 C.3      71   U    0.0674
   2264 N1         19.8550   60.1290   20.9390 N.am     71   U    0.0418
   2265 C2         21.0530   59.6930   21.4770 C.2      71   U    0.4687
   2266 O2         22.1000   59.6550   20.8510 O.2      71   U   -0.5477
   2267 N3         20.9850   59.2990   22.7920 N.am     71   U   -0.3549
   2268 C4         19.8630   59.2990   23.6010 C.2      71   U    0.5952
   2269 O4         19.9590   58.9210   24.7650 O.2      71   U   -0.5761
   2270 C5         18.6500   59.7570   22.9650 C.2      71   U   -0.3635
   2271 C6         18.6910   60.1430   21.6840 C.2      71   U   -0.1126
   2272 H5'        17.0020   62.2088   19.8385 H        71   U    0.0679
   2273 H5''       17.2186   63.6935   18.8903 H        71   U    0.0679
   2274 H4'        18.9228   62.8172   17.6420 H        71   U    0.1174
   2275 H3'        17.4455   60.5134   17.2284 H        71   U    0.0615
   2276 H2'        18.0000   59.4215   19.2476 H        71   U    0.0972
   2277 H1'        20.8250   60.4873   19.0947 H        71   U    0.1824
   2278 H3         21.8448   58.9754   23.2118 H        71   U    0.3154
   2279 H5         17.7216   59.7877   23.5160 H        71   U    0.1811
   2280 H6         17.7784   60.4787   21.2140 H        71   U    0.2188
   2281 HO2'       19.6845   57.9587   18.8502 H        71   U    0.4186
   2282 P          18.9130   60.6360   14.9380 P.3      72   U    1.1662
   2283 OP1        20.1390   60.5190   14.1260 O.co2    72   U   -0.7760
   2284 OP2        17.9420   61.7400   14.7180 O.co2    72   U   -0.7760
   2285 O5'        18.1460   59.2410   14.7940 O.3      72   U   -0.4989
   2286 C5'        18.8870   58.0600   14.5420 C.3      72   U    0.0558
   2287 C4'        18.1040   57.0780   13.6850 C.3      72   U    0.1065
   2288 O4'        16.9380   56.5610   14.3850 O.3      72   U   -0.3548
   2289 C3'        17.6070   57.6040   12.3390 C.3      72   U    0.2022
   2290 O3'        17.8900   56.6010   11.3820 O.3      72   U   -0.5246
   2291 C2'        16.1030   57.7110   12.5520 C.3      72   U    0.0670
   2292 O2'        15.3640   57.5520   11.3560 O.3      72   U   -0.6139
   2293 C1'        15.8610   56.5240   13.4840 C.3      72   U    0.0674
   2294 N1         14.5630   56.6050   14.2260 N.am     72   U    0.0418
   2295 C2         13.6420   55.5750   14.1190 C.2      72   U    0.4687
   2296 O2         13.8280   54.5580   13.4750 O.2      72   U   -0.5477
   2297 N3         12.4800   55.7610   14.8200 N.am     72   U   -0.3549
   2298 C4         12.1360   56.8470   15.5950 C.2      72   U    0.5952
   2299 O4         11.0460   56.8640   16.1600 O.2      72   U   -0.5761
   2300 C5         13.1310   57.8870   15.6490 C.2      72   U   -0.3635
   2301 C6         14.2800   57.7300   14.9780 C.2      72   U   -0.1126
   2302 H5'        19.8084   58.3249   14.0234 H        72   U    0.0679
   2303 H5''       19.1357   57.5856   15.4913 H        72   U    0.0679
   2304 H4'        18.7602   56.2321   13.4800 H        72   U    0.1174
   2305 H3'        18.0565   58.5622   12.0784 H        72   U    0.0615
   2306 H2'        15.8468   58.6491   13.0443 H        72   U    0.0972
   2307 H1'        15.8964   55.5974   12.9111 H        72   U    0.1824
   2308 H3         11.7983   55.0180   14.7622 H        72   U    0.3154
   2309 H5         12.9528   58.7836   16.2241 H        72   U    0.1811
   2310 H6         15.0178   58.5172   15.0267 H        72   U    0.2188
   2311 HO2'       15.5167   56.6739   10.9993 H        72   U    0.4186
   2312 P          18.7140   56.8700   10.0360 P.3      73   C    1.1662
   2313 OP1        18.8390   55.5290    9.4140 O.co2    73   C   -0.7760
   2314 OP2        19.9340   57.6620   10.3130 O.co2    73   C   -0.7760
   2315 O5'        17.7110   57.7870    9.1850 O.3      73   C   -0.4989
   2316 C5'        16.7820   57.1690    8.3000 C.3      73   C    0.0558
   2317 C4'        16.3400   58.1250    7.2130 C.3      73   C    0.1065
   2318 O4'        15.3730   59.0450    7.7660 O.3      73   C   -0.3548
   2319 C3'        17.4520   58.9770    6.6300 C.3      73   C    0.2022
   2320 O3'        17.9500   58.3390    5.4660 O.3      73   C   -0.5246
   2321 C2'        16.7540   60.2990    6.3180 C.3      73   C    0.0670
   2322 O2'        16.1340   60.3170    5.0490 O.3      73   C   -0.6139
   2323 C1'        15.6920   60.3780    7.4090 C.3      73   C    0.0066
   2324 N1         16.0990   61.1660    8.6300 N.am     73   C   -0.0484
   2325 C2         16.3400   62.5440    8.5270 C.2      73   C    0.7538
   2326 O2         16.2150   63.1100    7.4360 O.2      73   C   -0.6252
   2327 N3         16.7050   63.2330    9.6360 N.2      73   C   -0.7584
   2328 C4         16.8280   62.6070   10.8060 C.2      73   C    0.8185
   2329 N4         17.1860   63.3380   11.8620 N.pl3    73   C   -0.9530
   2330 C5         16.5860   61.2090   10.9420 C.2      73   C   -0.5215
   2331 C6         16.2260   60.5390    9.8400 C.2      73   C    0.0053
   2332 H5'        17.2538   56.3011    7.8393 H        73   C    0.0679
   2333 H5''       15.9098   56.8435    8.8669 H        73   C    0.0679
   2334 H4'        15.8703   57.5567    6.4101 H        73   C    0.1174
   2335 H3'        18.2482   59.1241    7.3598 H        73   C    0.0615
   2336 H2'        17.4547   61.1289    6.4098 H        73   C    0.0972
   2337 H1'        14.8007   60.8408    6.9852 H        73   C    0.2029
   2338 H5         16.6888   60.7106   11.8946 H        73   C    0.1928
   2339 H6         16.0313   59.4789    9.9075 H        73   C    0.1958
   2340 H41        17.3543   64.3283   11.7570 H        73   C    0.4234
   2341 H42        17.2889   62.9014   12.7669 H        73   C    0.4234
   2342 HO2'       16.8047   60.2672    4.3639 H        73   C    0.4186
   2343 P          19.3920   58.6890    4.8630 P.3      74   C    1.1662
   2344 OP1        19.4640   57.9790    3.5730 O.co2    74   C   -0.7760
   2345 OP2        20.4480   58.4510    5.8670 O.co2    74   C   -0.7760
   2346 O5'        19.3210   60.2670    4.6040 O.3      74   C   -0.4989
   2347 C5'        20.0460   60.7980    3.5170 C.3      74   C    0.0558
   2348 C4'        19.9980   62.3060    3.4720 C.3      74   C    0.1065
   2349 O4'        19.0560   62.8150    4.4420 O.3      74   C   -0.3548
   2350 C3'        21.3110   62.9630    3.8380 C.3      74   C    0.2022
   2351 O3'        22.1300   62.9980    2.7090 O.3      74   C   -0.5246
   2352 C2'        20.8600   64.3490    4.2740 C.3      74   C    0.0670
   2353 O2'        20.5910   65.2240    3.1940 O.3      74   C   -0.6139
   2354 C1'        19.5770   63.9980    5.0300 C.3      74   C    0.0066
   2355 N1         19.8150   63.7420    6.4880 N.am     74   C   -0.0484
   2356 C2         20.2880   64.7780    7.3130 C.2      74   C    0.7538
   2357 O2         20.4950   65.8980    6.8400 O.2      74   C   -0.6252
   2358 N3         20.5010   64.5270    8.6250 N.2      74   C   -0.7584
   2359 C4         20.2700   63.3080    9.1170 C.2      74   C    0.8185
   2360 N4         20.5010   63.1220   10.4190 N.pl3    74   C   -0.9530
   2361 C5         19.7900   62.2350    8.3000 C.2      74   C   -0.5215
   2362 C6         19.5830   62.4930    7.0050 C.2      74   C    0.0053
   2363 H5'        21.0861   60.4839    3.6039 H        74   C    0.0679
   2364 H5''       19.6330   60.4027    2.5890 H        74   C    0.0679
   2365 H4'        19.6988   62.6281    2.4746 H        74   C    0.1174
   2366 H3'        21.7976   62.4344    4.6577 H        74   C    0.0615
   2367 H2'        21.5912   64.7922    4.9501 H        74   C    0.0972
   2368 H1'        18.8560   64.8075    4.9166 H        74   C    0.2029
   2369 H5         19.6024   61.2552    8.7139 H        74   C    0.1928
   2370 H6         19.2278   61.7062    6.3560 H        74   C    0.1958
   2371 H41        20.8379   63.8866   10.9864 H        74   C    0.4234
   2372 H42        20.3388   62.2167   10.8364 H        74   C    0.4234
   2373 HO2'       21.4095   65.4291    2.7362 H        74   C    0.4186
   2374 P          23.4010   62.0430    2.6400 P.3      75   A    1.1662
   2375 OP1        23.5520   61.6120    1.2390 O.co2    75   A   -0.7760
   2376 OP2        23.3020   60.9990    3.6860 O.co2    75   A   -0.7760
   2377 O5'        24.5760   63.0680    3.0050 O.3      75   A   -0.4989
   2378 C5'        24.5310   64.3850    2.4900 C.3      75   A    0.0558
   2379 C4'        25.2620   65.3750    3.3790 C.3      75   A    0.1065
   2380 O4'        24.3740   65.9080    4.3990 O.3      75   A   -0.3548
   2381 C3'        26.4220   64.8200    4.1840 C.3      75   A    0.2022
   2382 O3'        27.5750   64.6700    3.3820 O.3      75   A   -0.5246
   2383 C2'        26.5840   65.9110    5.2350 C.3      75   A    0.0670
   2384 O2'        27.1980   67.0740    4.7180 O.3      75   A   -0.6139
   2385 C1'        25.1250   66.1960    5.5750 C.3      75   A    0.0394
   2386 N9         24.6320   65.3940    6.7040 N.ar     75   A   -0.0251
   2387 C8         23.8610   64.2640    6.6480 C.ar     75   A    0.2006
   2388 N7         23.5670   63.7560    7.8190 N.ar     75   A   -0.6073
   2389 C5         24.1920   64.6050    8.7130 C.ar     75   A    0.0515
   2390 C6         24.2640   64.6130   10.1240 C.ar     75   A    0.7009
   2391 N6         23.6720   63.6920   10.8880 N.pl3    75   A   -0.9019
   2392 N1         24.9690   65.6040   10.7180 N.ar     75   A   -0.7615
   2393 C2         25.5590   66.5250    9.9420 C.ar     75   A    0.5875
   2394 N3         25.5590   66.6280    8.6090 N.ar     75   A   -0.6997
   2395 C4         24.8530   65.6230    8.0470 C.ar     75   A    0.3053
   2396 H5'        24.9938   64.3916    1.5032 H        75   A    0.0679
   2397 H5''       23.4899   64.6939    2.3959 H        75   A    0.0679
   2398 H4'        25.6240   66.1986    2.7636 H        75   A    0.1174
   2399 H3'        26.1501   63.8728    4.6498 H        75   A    0.0615
   2400 H2'        27.1231   65.5382    6.1060 H        75   A    0.0972
   2401 H1'        25.0163   67.2535    5.8160 H        75   A    0.2007
   2402 H8         23.5243   63.8290    5.7186 H        75   A    0.1553
   2403 H2         26.1112   67.2903   10.4672 H        75   A    0.0473
   2404 H61        23.1425   62.9457   10.4605 H        75   A    0.4115
   2405 H62        23.7537   63.7415   11.8935 H        75   A    0.4115
   2406 HO2'       27.1579   67.7750    5.3727 H        75   A    0.4186
   2407 P          28.6360   63.5460    3.7910 P.3      76   A    1.1662
   2408 OP1        29.6700   63.4640    2.7360 O.co2    76   A   -0.7760
   2409 OP2        27.8940   62.3240    4.1890 O.co2    76   A   -0.7760
   2410 O5'        29.2980   64.1780    5.1030 O.3      76   A   -0.4989
   2411 C5'        30.1130   65.3340    5.0230 C.3      76   A    0.0558
   2412 C4'        30.5300   65.7530    6.4170 C.3      76   A    0.1065
   2413 O4'        29.3500   65.9690    7.2350 O.3      76   A   -0.3548
   2414 C3'        31.3120   64.7030    7.1890 C.3      76   A    0.2022
   2415 O3'        32.6780   64.7210    6.8240 O.3      76   A   -0.5246
   2416 C2'        31.0970   65.1830    8.6180 C.3      76   A    0.0670
   2417 O2'        31.8920   66.3130    8.9380 O.3      76   A   -0.6139
   2418 C1'        29.6190   65.5620    8.5700 C.3      76   A    0.0394
   2419 N9         28.7120   64.4720    8.9660 N.ar     76   A   -0.0251
   2420 C8         28.0870   63.5660    8.1500 C.ar     76   A    0.2006
   2421 N7         27.3270   62.7060    8.7900 N.ar     76   A   -0.6073
   2422 C5         27.4580   63.0680   10.1230 C.ar     76   A    0.0515
   2423 C6         26.9040   62.5490   11.3200 C.ar     76   A    0.7009
   2424 N6         26.0690   61.5120   11.3670 N.pl3    76   A   -0.9019
   2425 N1         27.2430   63.1390   12.4810 N.ar     76   A   -0.7615
   2426 C2         28.0740   64.1890   12.4450 C.ar     76   A    0.5875
   2427 N3         28.6570   64.7670   11.3920 N.ar     76   A   -0.6997
   2428 C4         28.3080   64.1540   10.2470 C.ar     76   A    0.3053
   2429 H5'        31.0000   65.1130    4.4293 H        76   A    0.0679
   2430 H5''       29.5527   66.1421    4.5528 H        76   A    0.0679
   2431 H4'        31.1104   66.6740    6.3631 H        76   A    0.1174
   2432 H3'        30.8828   63.7119    7.0424 H        76   A    0.0615
   2433 H2'        31.2675   64.3745    9.3289 H        76   A    0.0972
   2434 H1'        29.4547   66.4111    9.2335 H        76   A    0.2007
   2435 H8         28.2081   63.5593    7.0768 H        76   A    0.1553
   2436 H2         28.3051   64.6305   13.4032 H        76   A    0.0473
   2437 H61        25.7943   61.0458   10.5142 H        76   A    0.4115
   2438 H62        25.7106   61.1921   12.2554 H        76   A    0.4115
   2439 HO2'       31.6306   66.6556    9.7958 H        76   A    0.4186
   2440 P          33.5380   63.3800    6.9420 P.3      77   A    1.1662
   2441 OP1        34.8370   63.6180    6.2740 O.co2    77   A   -0.7760
   2442 OP2        32.6890   62.2440    6.5230 O.co2    77   A   -0.7760
   2443 O5'        33.7830   63.2560    8.5170 O.3      77   A   -0.4989
   2444 C5'        34.5660   64.2490    9.2110 C.3      77   A    0.0558
   2445 C4'        34.4000   64.1450   10.7220 C.3      77   A    0.1065
   2446 O4'        33.0030   64.3170   11.0910 O.3      77   A   -0.3548
   2447 C3'        34.7770   62.8020   11.3300 C.3      77   A    0.2022
   2448 O3'        36.1670   62.7370   11.5660 O.3      77   A   -0.5246
   2449 C2'        33.9940   62.8370   12.6340 C.3      77   A    0.0670
   2450 O2'        34.6180   63.6410   13.6120 O.3      77   A   -0.6139
   2451 C1'        32.6880   63.4720   12.1810 C.3      77   A    0.0394
   2452 N9         31.7130   62.4680   11.7690 N.ar     77   A   -0.0251
   2453 C8         31.5830   61.8760   10.5430 C.ar     77   A    0.2006
   2454 N7         30.6200   60.9830   10.4870 N.ar     77   A   -0.6073
   2455 C5         30.0830   60.9930   11.7630 C.ar     77   A    0.0515
   2456 C6         29.0300   60.2750   12.3630 C.ar     77   A    0.7009
   2457 N6         28.2940   59.3690   11.7210 N.pl3    77   A   -0.9019
   2458 N1         28.7590   60.5240   13.6590 N.ar     77   A   -0.7615
   2459 C2         29.4990   61.4250   14.3140 C.ar     77   A    0.5875
   2460 N3         30.5110   62.1560   13.8620 N.ar     77   A   -0.6997
   2461 C4         30.7550   61.8920   12.5690 C.ar     77   A    0.3053
   2462 H5'        34.2457   65.2396    8.8882 H        77   A    0.0679
   2463 H5''       35.6176   64.1144    8.9579 H        77   A    0.0679
   2464 H4'        34.9909   64.9276   11.1979 H        77   A    0.1174
   2465 H3'        34.4477   61.9783   10.6966 H        77   A    0.0615
   2466 H2'        33.8244   61.8287   13.0116 H        77   A    0.0972
   2467 H1'        32.2734   64.0680   12.9940 H        77   A    0.2007
   2468 H8         32.2125   62.1194    9.6999 H        77   A    0.1553
   2469 H2         29.2382   61.5788   15.3507 H        77   A    0.0473
   2470 H61        28.4786   59.1652   10.7492 H        77   A    0.4115
   2471 H62        27.5514   58.8859   12.2061 H        77   A    0.4115
   2472 HO2'       35.4399   63.2292   13.8887 H        77   A    0.4186
   2473 P          36.8340   61.3520   12.0100 P.3      78   A    1.1662
   2474 OP1        38.3040   61.5470   12.0320 O.co2    78   A   -0.7760
   2475 OP2        36.2220   60.2650   11.2050 O.co2    78   A   -0.7760
   2476 O5'        36.3440   61.1910   13.5190 O.3      78   A   -0.4989
   2477 C5'        36.0520   59.9140   14.0180 C.3      78   A    0.0558
   2478 C4'        35.2080   60.0530   15.2590 C.3      78   A    0.1065
   2479 O4'        33.8520   60.4300   14.9110 O.3      78   A   -0.3548
   2480 C3'        35.0370   58.7590   16.0160 C.3      78   A    0.2022
   2481 O3'        36.1780   58.5100   16.8030 O.3      78   A   -0.5246
   2482 C2'        33.8040   59.0710   16.8460 C.3      78   A    0.0670
   2483 O2'        34.0930   59.9030   17.9480 O.3      78   A   -0.6139
   2484 C1'        32.9480   59.8010   15.8090 C.3      78   A    0.0394
   2485 N9         32.0890   58.8730   15.0720 N.ar     78   A   -0.0251
   2486 C8         32.1410   58.5740   13.7410 C.ar     78   A    0.2006
   2487 N7         31.2480   57.6850   13.3660 N.ar     78   A   -0.6073
   2488 C5         30.5690   57.3710   14.5310 C.ar     78   A    0.0515
   2489 C6         29.5070   56.4850   14.8120 C.ar     78   A    0.7009
   2490 N6         28.9250   55.7170   13.8920 N.pl3    78   A   -0.9019
   2491 N1         29.0670   56.4050   16.0830 N.ar     78   A   -0.7615
   2492 C2         29.6560   57.1630   17.0120 C.ar     78   A    0.5875
   2493 N3         30.6560   58.0340   16.8710 N.ar     78   A   -0.6997
   2494 C4         31.0770   58.0900   15.5940 C.ar     78   A    0.3053
   2495 H5'        36.9796   59.3967   14.2632 H        78   A    0.0679
   2496 H5''       35.5047   59.3450   13.2665 H        78   A    0.0679
   2497 H4'        35.6418   60.8075   15.9152 H        78   A    0.1174
   2498 H3'        34.8470   57.9309   15.3331 H        78   A    0.0615
   2499 H2'        33.3157   58.1529   17.1727 H        78   A    0.0972
   2500 H1'        32.3357   60.5555   16.3030 H        78   A    0.2007
   2501 H8         32.8484   59.0249   13.0608 H        78   A    0.1553
   2502 H2         29.2694   57.0558   18.0147 H        78   A    0.0473
   2503 H61        29.2378   55.7535   12.9324 H        78   A    0.4115
   2504 H62        28.1710   55.0983   14.1542 H        78   A    0.4115
   2505 HO2'       33.2731   60.1762   18.3661 H        78   A    0.4186
   2506 P          36.8580   57.0660   16.7040 P.3      79   C    1.1662
   2507 OP1        38.2280   57.1880   17.2490 O.co2    79   C   -0.7760
   2508 OP2        36.6560   56.5210   15.3440 O.co2    79   C   -0.7760
   2509 O5'        35.9490   56.1800   17.6850 O.3      79   C   -0.4989
   2510 C5'        35.3350   56.8010   18.8110 C.3      79   C    0.0558
   2511 C4'        34.2580   55.9300   19.4120 C.3      79   C    0.1065
   2512 O4'        32.9780   56.2270   18.8080 O.3      79   C   -0.3548
   2513 C3'        34.4700   54.4540   19.2010 C.3      79   C    0.2022
   2514 O3'        35.3460   54.0140   20.1950 O.3      79   C   -0.5246
   2515 C2'        33.0470   53.9440   19.3800 C.3      79   C    0.0670
   2516 O2'        32.6600   53.8170   20.7280 O.3      79   C   -0.6139
   2517 C1'        32.2370   55.0320   18.6770 C.3      79   C    0.0066
   2518 N1         32.0270   54.7150   17.2220 N.am     79   C   -0.0484
   2519 C2         30.9850   53.8510   16.8340 C.2      79   C    0.7538
   2520 O2         30.2150   53.3790   17.6840 O.2      79   C   -0.6252
   2521 N3         30.8360   53.5540   15.5190 N.2      79   C   -0.7584
   2522 C4         31.6710   54.0610   14.6160 C.2      79   C    0.8185
   2523 N4         31.4640   53.7390   13.3370 N.pl3    79   C   -0.9530
   2524 C5         32.7430   54.9270   14.9880 C.2      79   C   -0.5215
   2525 C6         32.8860   55.2170   16.2840 C.2      79   C    0.0053
   2526 H5'        34.8902   57.7445   18.4948 H        79   C    0.0679
   2527 H5''       36.0950   57.0006   19.5665 H        79   C    0.0679
   2528 H4'        34.1986   56.1291   20.4820 H        79   C    0.1174
   2529 H3'        34.8524   54.2402   18.2029 H        79   C    0.0615
   2530 H2'        32.9227   52.9922   18.8636 H        79   C    0.0972
   2531 H1'        31.2713   55.1448   19.1697 H        79   C    0.2029
   2532 H5         33.4153   55.3337   14.2471 H        79   C    0.1928
   2533 H6         33.6953   55.8601   16.5969 H        79   C    0.1958
   2534 H41        30.6991   53.1285   13.0874 H        79   C    0.4234
   2535 H42        32.0723   54.1059   12.6191 H        79   C    0.4234
   2536 HO2'       31.7154   53.6528   20.7761 H        79   C    0.4186
   2537 P          35.7280   52.4760   20.4200 P.3      80   C    1.1662
   2538 OP1        36.4010   52.4010   21.7380 O.co2    80   C   -0.7760
   2539 OP2        36.4650   51.9800   19.2370 O.co2    80   C   -0.7760
   2540 O5'        34.3100   51.7250   20.4640 O.3      80   C   -0.4989
   2541 C5'        33.9230   51.0250   21.6240 C.3      80   C    0.0558
   2542 C4'        32.6990   50.1550   21.4220 C.3      80   C    0.1065
   2543 O4'        31.8280   50.6590   20.3880 O.3      80   C   -0.3548
   2544 C3'        33.0270   48.7480   21.0040 C.3      80   C    0.2022
   2545 O3'        33.2750   48.0210   22.1650 O.3      80   C   -0.5246
   2546 C2'        31.7450   48.2860   20.3240 C.3      80   C    0.0670
   2547 O2'        30.8150   47.6980   21.2100 O.3      80   C   -0.6139
   2548 C1'        31.1820   49.5760   19.7400 C.3      80   C    0.0066
   2549 N1         31.4220   49.6900   18.2660 N.am     80   C   -0.0484
   2550 C2         30.5730   49.0390   17.3550 C.2      80   C    0.7538
   2551 O2         29.6140   48.3790   17.7680 O.2      80   C   -0.6252
   2552 N3         30.8170   49.1750   16.0290 N.2      80   C   -0.7584
   2553 C4         31.8500   49.9090   15.6090 C.2      80   C    0.8185
   2554 N4         32.0530   50.0100   14.2980 N.pl3    80   C   -0.9530
   2555 C5         32.7240   50.5790   16.5160 C.2      80   C   -0.5215
   2556 C6         32.4790   50.4390   17.8210 C.2      80   C    0.0053
   2557 H5'        34.7513   50.3887   21.9358 H        80   C    0.0679
   2558 H5''       33.7156   51.7448   22.4158 H        80   C    0.0679
   2559 H4'        32.1414   50.1179   22.3578 H        80   C    0.1174
   2560 H3'        33.8769   48.7189   20.3221 H        80   C    0.0615
   2561 H2'        31.9827   47.5888   19.5206 H        80   C    0.0972
   2562 H1'        30.1109   49.6243   19.9365 H        80   C    0.2029
   2563 H5         33.5511   51.1759   16.1610 H        80   C    0.1928
   2564 H6         33.1249   50.9244   18.5376 H        80   C    0.1958
   2565 H41        31.4351   49.5378   13.6535 H        80   C    0.4234
   2566 H42        32.8250   50.5588   13.9473 H        80   C    0.4234
   2567 HO2'       30.8214   48.1741   22.0436 H        80   C    0.4186
   2568 P          34.5410   47.0650   22.2480 P.3      81   G    1.1662
   2569 OP1        35.0080   47.0530   23.6520 O.co2    81   G   -0.7760
   2570 OP2        35.4800   47.4390   21.1690 O.co2    81   G   -0.7760
   2571 O5'        33.9010   45.6460   21.8930 O.3      81   G   -0.4989
   2572 C5'        32.6020   45.3540   22.3660 C.3      81   G    0.0558
   2573 C4'        31.9480   44.2620   21.5490 C.3      81   G    0.1065
   2574 O4'        31.2930   44.8240   20.3850 O.3      81   G   -0.3548
   2575 C3'        32.8900   43.1740   21.0600 C.3      81   G    0.2022
   2576 O3'        32.8380   42.1500   22.0170 O.3      81   G   -0.5246
   2577 C2'        32.2620   42.7440   19.7370 C.3      81   G    0.0670
   2578 O2'        31.3370   41.6720   19.8980 O.3      81   G   -0.6139
   2579 C1'        31.5540   44.0170   19.2500 C.3      81   G    0.0191
   2580 N9         32.2820   44.8790   18.3160 N.ar     81   G    0.0492
   2581 C8         33.4130   45.6080   18.5890 C.ar     81   G    0.1374
   2582 N7         33.8150   46.3430   17.5890 N.ar     81   G   -0.5709
   2583 C5         32.8830   46.0930   16.5860 C.ar     81   G    0.1744
   2584 C6         32.8080   46.6010   15.2650 C.2      81   G    0.4770
   2585 O6         33.5720   47.4040   14.7090 O.2      81   G   -0.5597
   2586 N1         31.7170   46.0910   14.5740 N.am     81   G   -0.4787
   2587 C2         30.8070   45.2030   15.0920 C.2      81   G    0.7657
   2588 N2         29.8010   44.8240   14.2800 N.pl3    81   G   -0.9672
   2589 N3         30.8700   44.7220   16.3300 N.2      81   G   -0.6323
   2590 C4         31.9290   45.2050   17.0210 C.ar     81   G    0.1222
   2591 H5'        31.9920   46.2553   22.3054 H        81   G    0.0679
   2592 H5''       32.6640   45.0337   23.4060 H        81   G    0.0679
   2593 H4'        31.1848   43.7911   22.1686 H        81   G    0.1174
   2594 H3'        33.9044   43.5487   20.9233 H        81   G    0.0615
   2595 H2'        33.0418   42.4591   19.0307 H        81   G    0.0972
   2596 H1'        30.6037   43.7356   18.7963 H        81   G    0.2006
   2597 H8         33.9216   45.5760   19.5412 H        81   G    0.1640
   2598 H1         31.5830   46.3956   13.6204 H        81   G    0.3424
   2599 H21        29.7462   45.1888   13.3398 H        81   G    0.4364
   2600 H22        29.1016   44.1751   14.6115 H        81   G    0.4364
   2601 HO2'       31.7622   40.8445   19.6612 H        81   G    0.4186
   2602 P          33.8150   40.8880   21.9720 P.3      82   A    1.1662
   2603 OP1        35.0580   41.1980   22.7130 O.co2    82   A   -0.7760
   2604 OP2        33.9070   40.3710   20.5890 O.co2    82   A   -0.7760
   2605 O5'        32.9460   39.8340   22.7890 O.3      82   A   -0.4989
   2606 C5'        32.3160   40.2110   23.9860 C.3      82   A    0.0558
   2607 C4'        31.7920   38.9730   24.6800 C.3      82   A    0.1065
   2608 O4'        30.7320   38.3710   23.8830 O.3      82   A   -0.3548
   2609 C3'        32.8090   37.8600   24.8850 C.3      82   A    0.2022
   2610 O3'        33.5560   38.1200   26.0500 O.3      82   A   -0.5246
   2611 C2'        31.8830   36.6590   25.0590 C.3      82   A    0.0670
   2612 O2'        31.3820   36.5280   26.3780 O.3      82   A   -0.6139
   2613 C1'        30.7490   36.9650   24.0680 C.3      82   A    0.0394
   2614 N9         30.9670   36.3310   22.7670 N.ar     82   A   -0.0251
   2615 C8         31.4200   36.9370   21.6280 C.ar     82   A    0.2006
   2616 N7         31.5480   36.1210   20.6070 N.ar     82   A   -0.6073
   2617 C5         31.1600   34.8940   21.1090 C.ar     82   A    0.0515
   2618 C6         31.0650   33.6200   20.5180 C.ar     82   A    0.7009
   2619 N6         31.3710   33.3850   19.2410 N.pl3    82   A   -0.9019
   2620 N1         30.6370   32.6000   21.2960 N.ar     82   A   -0.7615
   2621 C2         30.3180   32.8490   22.5760 C.ar     82   A    0.5875
   2622 N3         30.3620   34.0050   23.2400 N.ar     82   A   -0.6997
   2623 C4         30.7980   35.0000   22.4430 C.ar     82   A    0.3053
   2624 H5'        33.0335   40.7159   24.6328 H        82   A    0.0679
   2625 H5''       31.4872   40.8838   23.7656 H        82   A    0.0679
   2626 H4'        31.3838   39.2593   25.6493 H        82   A    0.1174
   2627 H3'        33.4545   37.7437   24.0144 H        82   A    0.0615
   2628 H2'        32.3988   35.7452   24.7641 H        82   A    0.0972
   2629 H1'        29.7967   36.6360   24.4839 H        82   A    0.2007
   2630 H8         31.6514   37.9905   21.5731 H        82   A    0.1553
   2631 H2         29.9794   31.9966   23.1462 H        82   A    0.0473
   2632 H61        31.6898   34.1401   18.6509 H        82   A    0.4115
   2633 H62        31.2839   32.4519   18.8643 H        82   A    0.4115
   2634 HO2'       30.7442   35.8111   26.4083 H        82   A    0.4186
   2635 P          35.0730   37.6350   26.1950 P.3      83   C    1.1662
   2636 OP1        35.5420   38.0250   27.5420 O.co2    83   C   -0.7760
   2637 OP2        35.8530   38.0800   25.0210 O.co2    83   C   -0.7760
   2638 O5'        34.9370   36.0440   26.1330 O.3      83   C   -0.4989
   2639 C5'        34.4670   35.3350   27.2680 C.3      83   C    0.0558
   2640 C4'        34.2390   33.8750   26.9420 C.3      83   C    0.1065
   2641 O4'        33.2890   33.7560   25.8580 O.3      83   C   -0.3548
   2642 C3'        35.4550   33.1120   26.4480 C.3      83   C    0.2022
   2643 O3'        36.2590   32.7090   27.5350 O.3      83   C   -0.5246
   2644 C2'        34.7820   31.9180   25.7870 C.3      83   C    0.0670
   2645 O2'        34.3940   30.9220   26.7180 O.3      83   C   -0.6139
   2646 C1'        33.5610   32.5710   25.1370 C.3      83   C    0.0066
   2647 N1         33.7970   32.9280   23.7130 N.am     83   C   -0.0484
   2648 C2         33.7710   31.9250   22.7370 C.2      83   C    0.7538
   2649 O2         33.5410   30.7610   23.0740 O.2      83   C   -0.6252
   2650 N3         33.9960   32.2580   21.4400 N.2      83   C   -0.7584
   2651 C4         34.2450   33.5250   21.1090 C.2      83   C    0.8185
   2652 N4         34.4610   33.7950   19.8220 N.pl3    83   C   -0.9530
   2653 C5         34.2760   34.5690   22.0850 C.2      83   C   -0.5215
   2654 C6         34.0490   34.2260   23.3600 C.2      83   C    0.0053
   2655 H5'        35.2059   35.4104   28.0658 H        83   C    0.0679
   2656 H5''       33.5296   35.7779   27.6045 H        83   C    0.0679
   2657 H4'        33.8381   33.3728   27.8224 H        83   C    0.1174
   2658 H3'        36.0255   33.6968   25.7265 H        83   C    0.0615
   2659 H2'        35.4333   31.4905   25.0247 H        83   C    0.0972
   2660 H1'        32.7069   31.8975   25.2072 H        83   C    0.2029
   2661 H5         34.4745   35.5932   21.8057 H        83   C    0.1928
   2662 H6         34.0652   34.9889   24.1243 H        83   C    0.1958
   2663 H41        34.4349   33.0516   19.1388 H        83   C    0.4234
   2664 H42        34.6508   34.7430   19.5298 H        83   C    0.4234
   2665 HO2'       33.8863   30.2432   26.2674 H        83   C    0.4186
   2666 P          37.8340   32.5720   27.3310 P.3      84   A    1.1662
   2667 OP1        38.4660   32.3450   28.6440 O.co2    84   A   -0.7760
   2668 OP2        38.2810   33.7250   26.5240 O.co2    84   A   -0.7760
   2669 O5'        37.9850   31.2490   26.4430 O.3      84   A   -0.4989
   2670 C5'        37.6620   29.9810   26.9910 C.3      84   A    0.0558
   2671 C4'        38.0030   28.8550   26.0340 C.3      84   A    0.1065
   2672 O4'        36.9580   28.7390   25.0380 O.3      84   A   -0.3548
   2673 C3'        39.2740   29.0340   25.2200 C.3      84   A    0.2022
   2674 O3'        40.3980   28.5720   25.9220 O.3      84   A   -0.5246
   2675 C2'        38.9790   28.1510   24.0180 C.3      84   A    0.0670
   2676 O2'        39.0720   26.7750   24.3220 O.3      84   A   -0.6139
   2677 C1'        37.5340   28.5310   23.7600 C.3      84   A    0.0394
   2678 N9         37.4040   29.7440   22.9460 N.ar     84   A   -0.0251
   2679 C8         37.0350   30.9950   23.3620 C.ar     84   A    0.2006
   2680 N7         37.0010   31.8910   22.4050 N.ar     84   A   -0.6073
   2681 C5         37.3780   31.1800   21.2780 C.ar     84   A    0.0515
   2682 C6         37.5370   31.5530   19.9280 C.ar     84   A    0.7009
   2683 N6         37.3280   32.7910   19.4860 N.pl3    84   A   -0.9019
   2684 N1         37.9180   30.6040   19.0500 N.ar     84   A   -0.7615
   2685 C2         38.1260   29.3600   19.4990 C.ar     84   A    0.5875
   2686 N3         38.0110   28.8870   20.7410 N.ar     84   A   -0.6997
   2687 C4         37.6330   29.8570   21.5920 C.ar     84   A    0.3053
   2688 H5'        36.5939   29.9507   27.2062 H        84   A    0.0679
   2689 H5''       38.2170   29.8413   27.9186 H        84   A    0.0679
   2690 H4'        38.0671   27.9211   26.5924 H        84   A    0.1174
   2691 H3'        39.4018   30.0738   24.9189 H        84   A    0.0615
   2692 H2'        39.6133   28.4121   23.1709 H        84   A    0.0972
   2693 H1'        37.0252   27.7049   23.2632 H        84   A    0.2007
   2694 H8         36.7929   31.2241   24.3893 H        84   A    0.1553
   2695 H2         38.4286   28.6402   18.7528 H        84   A    0.0473
   2696 H61        37.0417   33.5152   20.1291 H        84   A    0.4115
   2697 H62        37.4557   33.0062   18.5075 H        84   A    0.4115
   2698 HO2'       38.7378   26.2608   23.5834 H        84   A    0.4186
   2699 P          41.8310   29.1750   25.5690 P.3      85   G    1.1662
   2700 OP1        42.8190   28.6000   26.5080 O.co2    85   G   -0.7760
   2701 OP2        41.6930   30.6410   25.4660 O.co2    85   G   -0.7760
   2702 O5'        42.1190   28.6070   24.1040 O.3      85   G   -0.4989
   2703 C5'        42.3290   27.2100   23.8780 C.3      85   G    0.0558
   2704 C4'        42.6670   26.9510   22.4200 C.3      85   G    0.1065
   2705 O4'        41.5880   27.4270   21.5710 O.3      85   G   -0.3548
   2706 C3'        43.9050   27.6810   21.9320 C.3      85   G    0.2022
   2707 O3'        45.0600   26.9010   22.1720 O.3      85   G   -0.5246
   2708 C2'        43.6300   27.8690   20.4420 C.3      85   G    0.0670
   2709 O2'        44.0210   26.7510   19.6690 O.3      85   G   -0.6139
   2710 C1'        42.1130   28.0390   20.4020 C.3      85   G    0.0191
   2711 N9         41.6690   29.4340   20.3350 N.ar     85   G    0.0492
   2712 C8         41.3520   30.2630   21.3860 C.ar     85   G    0.1374
   2713 N7         40.9850   31.4630   21.0240 N.ar     85   G   -0.5709
   2714 C5         41.0590   31.4310   19.6390 C.ar     85   G    0.1744
   2715 C6         40.7760   32.4420   18.6880 C.2      85   G    0.4770
   2716 O6         40.3940   33.6030   18.8960 O.2      85   G   -0.5597
   2717 N1         40.9880   31.9990   17.3830 N.am     85   G   -0.4787
   2718 C2         41.4200   30.7350   17.0430 C.2      85   G    0.7657
   2719 N2         41.5660   30.4820   15.7350 N.pl3    85   G   -0.9672
   2720 N3         41.6850   29.7790   17.9240 N.2      85   G   -0.6323
   2721 C4         41.4840   30.1920   19.2000 C.ar     85   G    0.1222
   2722 H5'        43.1525   26.8656   24.5035 H        85   G    0.0679
   2723 H5''       41.4238   26.6625   24.1407 H        85   G    0.0679
   2724 H4'        42.7983   25.8798   22.2668 H        85   G    0.1174
   2725 H3'        43.9928   28.6488   22.4256 H        85   G    0.0615
   2726 H2'        44.1214   28.7712   20.0776 H        85   G    0.0972
   2727 H1'        41.7275   27.5100   19.5304 H        85   G    0.2006
   2728 H8         41.4021   29.9495   22.4183 H        85   G    0.1640
   2729 H1         40.8123   32.6516   16.6325 H        85   G    0.3424
   2730 H21        41.3645   31.2019   15.0558 H        85   G    0.4364
   2731 H22        41.8775   29.5714   15.4285 H        85   G    0.4364
   2732 HO2'       43.7443   26.8788   18.7587 H        85   G    0.4186
   2733 P          46.3400   27.5970   22.8420 P.3      86   U    1.1662
   2734 OP1        47.2190   26.5290   23.3810 O.co2    86   U   -0.7760
   2735 OP2        45.8440   28.6780   23.7240 O.co2    86   U   -0.7760
   2736 O5'        47.0970   28.2870   21.6140 O.3      86   U   -0.4989
   2737 C5'        47.2420   27.6000   20.3720 C.3      86   U    0.0558
   2738 C4'        47.2860   28.6030   19.2410 C.3      86   U    0.1065
   2739 O4'        45.9960   29.2400   19.0860 O.3      86   U   -0.3548
   2740 C3'        48.2320   29.7610   19.4910 C.3      86   U    0.2022
   2741 O3'        49.5570   29.3670   19.1440 O.3      86   U   -0.5246
   2742 C2'        47.6730   30.8380   18.5640 C.3      86   U    0.0670
   2743 O2'        48.2860   30.8230   17.2910 O.3      86   U   -0.6139
   2744 C1'        46.1880   30.4860   18.4450 C.3      86   U    0.0674
   2745 N1         45.2780   31.5170   19.0510 N.am     86   U    0.0418
   2746 C2         44.6020   32.3980   18.2260 C.2      86   U    0.4687
   2747 O2         44.7020   32.3830   17.0130 O.2      86   U   -0.5477
   2748 N3         43.8030   33.3130   18.8740 N.am     86   U   -0.3549
   2749 C4         43.6090   33.4340   20.2390 C.2      86   U    0.5952
   2750 O4         42.8540   34.2970   20.6810 O.2      86   U   -0.5761
   2751 C5         44.3460   32.4850   21.0340 C.2      86   U   -0.3635
   2752 C6         45.1330   31.5860   20.4250 C.2      86   U   -0.1126
   2753 H5'        46.3960   26.9279   20.2282 H        86   U    0.0679
   2754 H5''       48.1667   27.0230   20.3819 H        86   U    0.0679
   2755 H4'        47.5600   28.0990   18.3142 H        86   U    0.1174
   2756 H3'        48.1837   30.0826   20.5314 H        86   U    0.0615
   2757 H2'        47.7879   31.8205   19.0218 H        86   U    0.0972
   2758 H1'        45.9385   30.3776   17.3895 H        86   U    0.1824
   2759 H3         43.3037   33.9677   18.2891 H        86   U    0.3154
   2760 H5         44.2654   32.4975   22.1109 H        86   U    0.1811
   2761 H6         45.6793   30.8827   21.0360 H        86   U    0.2188
   2762 HO2'       48.6909   31.6766   17.1207 H        86   U    0.4186
   2763 P          50.8210   30.3030   19.4690 P.3      87   A    1.1662
   2764 OP1        52.0520   29.4810   19.3480 O.co2    87   A   -0.7760
   2765 OP2        50.5490   31.0470   20.7250 O.co2    87   A   -0.7760
   2766 O5'        50.7760   31.3520   18.2630 O.3      87   A   -0.4989
   2767 C5'        51.8130   32.2980   18.1090 C.3      87   A    0.0558
   2768 C4'        51.4390   33.6200   18.7520 C.3      87   A    0.1065
   2769 O4'        52.4300   34.6040   18.3590 O.3      87   A   -0.3548
   2770 C3'        50.0820   34.2040   18.3460 C.3      87   A    0.2022
   2771 O3'        49.4930   34.9120   19.4440 O.3      87   A   -0.5246
   2772 C2'        50.4680   35.1830   17.2430 C.3      87   A    0.0670
   2773 O2'        49.5200   36.2210   17.1000 O.3      87   A   -0.6139
   2774 C1'        51.7580   35.7290   17.8370 C.3      87   A    0.0394
   2775 N9         52.6350   36.4470   16.9150 N.ar     87   A   -0.0251
   2776 C8         52.8000   36.2410   15.5760 C.ar     87   A    0.2006
   2777 N7         53.6600   37.0620   15.0210 N.ar     87   A   -0.6073
   2778 C5         54.0900   37.8610   16.0650 C.ar     87   A    0.0515
   2779 C6         55.0070   38.9350   16.1400 C.ar     87   A    0.7009
   2780 N6         55.6930   39.3990   15.0870 N.pl3    87   A   -0.9019
   2781 N1         55.2090   39.5100   17.3490 N.ar     87   A   -0.7615
   2782 C2         54.5290   39.0500   18.4090 C.ar     87   A    0.5875
   2783 N3         53.6460   38.0520   18.4610 N.ar     87   A   -0.6997
   2784 C4         53.4710   37.4930   17.2440 C.ar     87   A    0.3053
   2785 H5'        52.7181   31.9152   18.5806 H        87   A    0.0679
   2786 H5''       52.0006   32.4556   17.0469 H        87   A    0.0679
   2787 H4'        51.4647   33.5058   19.8357 H        87   A    0.1174
   2788 H3'        49.4138   33.4288   17.9710 H        87   A    0.0615
   2789 H2'        50.6474   34.6711   16.2976 H        87   A    0.0972
   2790 H1'        51.5045   36.3944   18.6623 H        87   A    0.2007
   2791 H8         52.2731   35.4754   15.0258 H        87   A    0.1553
   2792 H2         54.7218   39.5543   19.3443 H        87   A    0.0473
   2793 H61        55.5636   38.9818   14.1764 H        87   A    0.4115
   2794 H62        56.3396   40.1661   15.2038 H        87   A    0.4115
   2795 HO2'       48.7106   35.8663   16.7248 H        87   A    0.4186
   2796 P          48.1260   34.4330   20.1250 P.3      88   G    1.1662
   2797 OP1        48.4680   33.4760   21.2040 O.co2    88   G   -0.7760
   2798 OP2        47.1720   34.0410   19.0730 O.co2    88   G   -0.7760
   2799 O5'        47.5610   35.7620   20.7760 O.3      88   G   -0.4989
   2800 C5'        46.2600   35.7090   21.3280 C.3      88   G    0.0558
   2801 C4'        45.8650   37.0720   21.8480 C.3      88   G    0.1065
   2802 O4'        47.0690   37.8040   22.1690 O.3      88   G   -0.3548
   2803 C3'        45.1210   37.9550   20.8700 C.3      88   G    0.2022
   2804 O3'        44.2000   38.7000   21.6030 O.3      88   G   -0.5246
   2805 C2'        46.2160   38.8370   20.2490 C.3      88   G    0.0670
   2806 O2'        45.7100   40.0850   19.8120 O.3      88   G   -0.6139
   2807 C1'        47.1380   39.0130   21.4430 C.3      88   G    0.0191
   2808 N9         48.5600   39.2260   21.1970 N.ar     88   G    0.0492
   2809 C8         49.5400   38.2670   21.0100 C.ar     88   G    0.1374
   2810 N7         50.7470   38.7600   20.8840 N.ar     88   G   -0.5709
   2811 C5         50.5550   40.1310   21.0190 C.ar     88   G    0.1744
   2812 C6         51.4940   41.1900   20.9780 C.2      88   G    0.4770
   2813 O6         52.7270   41.1070   20.8050 O.2      88   G   -0.5597
   2814 N1         50.8790   42.4330   21.1740 N.am     88   G   -0.4787
   2815 C2         49.5260   42.6140   21.3800 C.2      88   G    0.7657
   2816 N2         49.0920   43.8710   21.5480 N.pl3    88   G   -0.9672
   2817 N3         48.6370   41.6310   21.4150 N.2      88   G   -0.6323
   2818 C4         49.2210   40.4260   21.2300 C.ar     88   G    0.1222
   2819 H5'        45.5536   35.3974   20.5585 H        88   G    0.0679
   2820 H5''       46.2433   34.9902   22.1472 H        88   G    0.0679
   2821 H4'        45.2662   36.9521   22.7509 H        88   G    0.1174
   2822 H3'        44.6213   37.3580   20.1071 H        88   G    0.0615
   2823 H2'        46.7235   38.3157   19.4374 H        88   G    0.0972
   2824 H1'        46.7604   39.8234   22.0665 H        88   G    0.2006
   2825 H8         49.3289   37.2085   20.9715 H        88   G    0.1640
   2826 H1         51.4665   43.2545   21.1639 H        88   G    0.3424
   2827 H21        49.7474   44.6391   21.5235 H        88   G    0.4364
   2828 H22        48.1096   44.0501   21.6991 H        88   G    0.4364
   2829 HO2'       45.7094   40.1123   18.8524 H        88   G    0.4186
   2830 P          42.6840   38.6100   21.1590 P.3      89   A    1.1662
   2831 OP1        41.9010   39.6360   21.8760 O.co2    89   A   -0.7760
   2832 OP2        42.2930   37.1840   21.2530 O.co2    89   A   -0.7760
   2833 O5'        42.8190   39.0320   19.6210 O.3      89   A   -0.4989
   2834 C5'        42.3330   40.2850   19.1600 C.3      89   A    0.0558
   2835 C4'        41.2950   40.0780   18.0740 C.3      89   A    0.1065
   2836 O4'        41.7980   39.0930   17.1510 O.3      89   A   -0.3548
   2837 C3'        39.9620   39.5350   18.5480 C.3      89   A    0.2022
   2838 O3'        38.9250   40.1440   17.8140 O.3      89   A   -0.5246
   2839 C2'        40.0370   38.0450   18.2250 C.3      89   A    0.0670
   2840 O2'        38.7650   37.5320   17.8970 O.3      89   A   -0.6139
   2841 C1'        40.8520   38.0770   16.9600 C.3      89   A    0.0394
   2842 N9         41.6230   36.8900   16.6810 N.ar     89   A   -0.0251
   2843 C8         42.3510   36.1460   17.5580 C.ar     89   A    0.2006
   2844 N7         43.0010   35.1500   16.9960 N.ar     89   A   -0.6073
   2845 C5         42.6770   35.2580   15.6490 C.ar     89   A    0.0515
   2846 C6         43.0340   34.5020   14.5060 C.ar     89   A    0.7009
   2847 N6         43.8330   33.4320   14.5420 N.pl3    89   A   -0.9019
   2848 N1         42.5220   34.8870   13.3150 N.ar     89   A   -0.7615
   2849 C2         41.7200   35.9570   13.2610 C.ar     89   A    0.5875
   2850 N3         41.3180   36.7410   14.2600 N.ar     89   A   -0.6997
   2851 C4         41.8300   36.3330   15.4390 C.ar     89   A    0.3053
   2852 H5'        43.1626   40.8669   18.7584 H        89   A    0.0679
   2853 H5''       41.8821   40.8257   19.9921 H        89   A    0.0679
   2854 H4'        41.1339   41.0177   17.5457 H        89   A    0.1174
   2855 H3'        39.8316   39.6973   19.6179 H        89   A    0.0615
   2856 H2'        40.5226   37.4737   19.0161 H        89   A    0.0972
   2857 H1'        40.2132   38.3161   16.1098 H        89   A    0.2007
   2858 H8         42.3912   36.3541   18.6170 H        89   A    0.1553
   2859 H2         41.3509   36.2187   12.2804 H        89   A    0.0473
   2860 H61        44.2237   33.1228   15.4206 H        89   A    0.4115
   2861 H62        44.0464   32.9322   13.6907 H        89   A    0.4115
   2862 HO2'       38.2195   37.4990   18.6863 H        89   A    0.4186
   2863 P          38.5560   41.6780   18.0590 P.3      90   G    1.1662
   2864 OP1        39.3280   42.4670   17.0800 O.co2    90   G   -0.7760
   2865 OP2        38.7080   41.9360   19.5030 O.co2    90   G   -0.7760
   2866 O5'        37.0050   41.7960   17.6880 O.3      90   G   -0.4989
   2867 C5'        36.1480   40.8090   18.1910 C.3      90   G    0.0558
   2868 C4'        34.8780   40.7030   17.3850 C.3      90   G    0.1065
   2869 O4'        34.2360   41.9980   17.3290 O.3      90   G   -0.3548
   2870 C3'        35.0520   40.2460   15.9420 C.3      90   G    0.2022
   2871 O3'        34.9360   38.8360   15.8820 O.3      90   G   -0.5246
   2872 C2'        33.8850   40.9440   15.2410 C.3      90   G    0.0670
   2873 O2'        32.6470   40.2720   15.3940 O.3      90   G   -0.6139
   2874 C1'        33.8220   42.2670   16.0000 C.3      90   G    0.0191
   2875 N9         34.6460   43.3520   15.4530 N.ar     90   G    0.0492
   2876 C8         35.5690   44.1080   16.1360 C.ar     90   G    0.1374
   2877 N7         36.1320   45.0290   15.4100 N.ar     90   G   -0.5709
   2878 C5         35.5520   44.8690   14.1560 C.ar     90   G    0.1744
   2879 C6         35.7650   45.5820   12.9520 C.2      90   G    0.4770
   2880 O6         36.5420   46.5160   12.7480 O.2      90   G   -0.5597
   2881 N1         34.9780   45.1070   11.9110 N.am     90   G   -0.4787
   2882 C2         34.0810   44.0740   12.0260 C.2      90   G    0.7657
   2883 N2         33.3940   43.7580   10.9240 N.pl3    90   G   -0.9672
   2884 N3         33.8690   43.3950   13.1450 N.2      90   G   -0.6323
   2885 C4         34.6350   43.8440   14.1670 C.ar     90   G    0.1222
   2886 H5'        36.6630   39.8487   18.1649 H        90   G    0.0679
   2887 H5''       35.8953   41.0495   19.2237 H        90   G    0.0679
   2888 H4'        34.2071   40.0070   17.8886 H        90   G    0.1174
   2889 H3'        36.0081   40.5786   15.5377 H        90   G    0.0615
   2890 H2'        34.1086   41.1110   14.1873 H        90   G    0.0972
   2891 H1'        32.7847   42.6011   16.0237 H        90   G    0.2006
   2892 H8         35.8048   43.9518   17.1783 H        90   G    0.1640
   2893 H1         35.0718   45.5513   11.0088 H        90   G    0.3424
   2894 H21        33.5494   44.2705   10.0677 H        90   G    0.4364
   2895 H22        32.7194   43.0067   10.9475 H        90   G    0.4364
   2896 HO2'       32.6747   39.4375   14.9203 H        90   G    0.4186
   2897 P          36.1520   37.9480   15.3490 P.3      91   U    1.1662
   2898 OP1        35.9150   36.5390   15.7500 O.co2    91   U   -0.7760
   2899 OP2        37.4580   38.5960   15.6580 O.co2    91   U   -0.7760
   2900 O5'        35.9200   38.0570   13.7800 O.3      91   U   -0.4989
   2901 C5'        34.7210   37.5460   13.2130 C.3      91   U    0.0558
   2902 C4'        34.7300   37.8370   11.7330 C.3      91   U    0.1065
   2903 O4'        34.8230   39.2690   11.5640 O.3      91   U   -0.3548
   2904 C3'        35.9110   37.2410   10.9800 C.3      91   U    0.2022
   2905 O3'        35.4800   36.7440    9.7140 O.3      91   U   -0.5246
   2906 C2'        36.8740   38.4160   10.8630 C.3      91   U    0.0670
   2907 O2'        37.7240   38.3550    9.7290 O.3      91   U   -0.6139
   2908 C1'        35.9170   39.5860   10.7520 C.3      91   U    0.0674
   2909 N1         36.5230   40.8150   11.2390 N.am     91   U    0.0418
   2910 C2         36.5290   41.9070   10.4130 C.2      91   U    0.4687
   2911 O2         36.0240   41.8880    9.3210 O.2      91   U   -0.5477
   2912 N3         37.1510   43.0270   10.9140 N.am     91   U   -0.3549
   2913 C4         37.7690   43.1510   12.1470 C.2      91   U    0.5952
   2914 O4         38.2870   44.2150   12.4590 O.2      91   U   -0.5761
   2915 C5         37.7260   41.9620   12.9660 C.2      91   U   -0.3635
   2916 C6         37.1200   40.8570   12.4890 C.2      91   U   -0.1126
   2917 H5'        34.6670   36.4696   13.3757 H        91   U    0.0679
   2918 H5''       33.8613   38.0301   13.6763 H        91   U    0.0679
   2919 H4'        33.8008   37.4802   11.2888 H        91   U    0.1174
   2920 H3'        36.3641   36.4400   11.5641 H        91   U    0.0615
   2921 H2'        37.4688   38.5042   11.7721 H        91   U    0.0972
   2922 H1'        35.5941   39.7104    9.7184 H        91   U    0.1824
   2923 H3         37.1576   43.8442   10.3206 H        91   U    0.3154
   2924 H5         38.1741   41.9586   13.9487 H        91   U    0.1811
   2925 H6         37.0987   39.9699   13.1046 H        91   U    0.2188
   2926 HO2'       38.3221   37.6093    9.8166 H        91   U    0.4186
   2927 P          35.1080   35.1940    9.5910 P.3      92   C    1.1662
   2928 OP1        34.6330   34.9250    8.2130 O.co2    92   C   -0.7760
   2929 OP2        34.1960   34.8480   10.7030 O.co2    92   C   -0.7760
   2930 O5'        36.5340   34.5000    9.8680 O.3      92   C   -0.4989
   2931 C5'        37.4240   34.1670    8.8170 C.3      92   C    0.0558
   2932 C4'        38.5140   33.2150    9.2880 C.3      92   C    0.1065
   2933 O4'        39.3940   33.8800   10.2360 O.3      92   C   -0.3548
   2934 C3'        38.0520   31.9630   10.0180 C.3      92   C    0.2022
   2935 O3'        37.6970   30.9710    9.0850 O.3      92   C   -0.5246
   2936 C2'        39.3020   31.5830   10.8160 C.3      92   C    0.0670
   2937 O2'        40.2460   30.8490   10.0590 O.3      92   C   -0.6139
   2938 C1'        39.8800   32.9490   11.1900 C.3      92   C    0.0066
   2939 N1         39.5070   33.4310   12.5670 N.am     92   C   -0.0484
   2940 C2         40.2440   33.0160   13.6920 C.2      92   C    0.7538
   2941 O2         41.2050   32.2490   13.5540 O.2      92   C   -0.6252
   2942 N3         39.8930   33.4800   14.9190 N.2      92   C   -0.7584
   2943 C4         38.8560   34.3100   15.0420 C.2      92   C    0.8185
   2944 N4         38.5430   34.7360   16.2650 N.pl3    92   C   -0.9530
   2945 C5         38.0910   34.7450   13.9150 C.2      92   C   -0.5215
   2946 C6         38.4490   34.2850   12.7120 C.2      92   C    0.0053
   2947 H5'        36.8611   33.6909    8.0142 H        92   C    0.0679
   2948 H5''       37.8856   35.0786    8.4376 H        92   C    0.0679
   2949 H4'        39.1045   32.9120    8.4234 H        92   C    0.1174
   2950 H3'        37.2186   32.1865   10.6840 H        92   C    0.0615
   2951 H2'        39.0247   31.0305   11.7138 H        92   C    0.0972
   2952 H1'        40.9665   32.9036   11.1155 H        92   C    0.2029
   2953 H5         37.2557   35.4196   14.0313 H        92   C    0.1928
   2954 H6         37.8927   34.5933   11.8391 H        92   C    0.1958
   2955 H41        39.0842   34.4290   17.0606 H        92   C    0.4234
   2956 H42        37.7645   35.3659   16.3965 H        92   C    0.4234
   2957 HO2'       41.0437   30.7231   10.5780 H        92   C    0.4186
   2958 P          36.6350   29.8360    9.4610 P.3      93   U    1.1662
   2959 OP1        36.5240   28.9390    8.2890 O.co2    93   U   -0.7760
   2960 OP2        35.4140   30.4620   10.0140 O.co2    93   U   -0.7760
   2961 O5'        37.3940   29.0530   10.6320 O.3      93   U   -0.4989
   2962 C5'        38.3830   28.0860   10.3010 C.3      93   U    0.0558
   2963 C4'        38.8610   27.3660   11.5430 C.3      93   U    0.1065
   2964 O4'        39.5410   28.3130   12.4040 O.3      93   U   -0.3548
   2965 C3'        37.7630   26.8060   12.4300 C.3      93   U    0.2022
   2966 O3'        37.3020   25.5620   11.9540 O.3      93   U   -0.5246
   2967 C2'        38.5070   26.6790   13.7500 C.3      93   U    0.0670
   2968 O2'        39.4070   25.5900   13.7720 O.3      93   U   -0.6139
   2969 C1'        39.2750   27.9970   13.7610 C.3      93   U    0.0674
   2970 N1         38.5030   29.1160   14.4190 N.am     93   U    0.0418
   2971 C2         38.5520   29.2530   15.7950 C.2      93   U    0.4687
   2972 O2         39.2020   28.5230   16.5220 O.2      93   U   -0.5477
   2973 N3         37.8130   30.2900   16.3030 N.am     93   U   -0.3549
   2974 C4         37.0420   31.1870   15.5930 C.2      93   U    0.5952
   2975 O4         36.4290   32.0630   16.1890 O.2      93   U   -0.5761
   2976 C5         37.0320   30.9830   14.1690 C.2      93   U   -0.3635
   2977 C6         37.7450   29.9770   13.6490 C.2      93   U   -0.1126
   2978 H5'        37.9566   27.3604    9.6083 H        93   U    0.0679
   2979 H5''       39.2283   28.5838    9.8257 H        93   U    0.0679
   2980 H4'        39.5479   26.5676   11.2621 H        93   U    0.1174
   2981 H3'        36.9394   27.5145   12.5181 H        93   U    0.0615
   2982 H2'        37.8105   26.6264   14.5868 H        93   U    0.0972
   2983 H1'        40.2192   27.8563   14.2871 H        93   U    0.1824
   2984 H3         37.8355   30.4103   17.3056 H        93   U    0.3154
   2985 H5         36.4562   31.6337   13.5275 H        93   U    0.1811
   2986 H6         37.7271   29.8316   12.5790 H        93   U    0.2188
   2987 HO2'       38.9138   24.7664   13.7649 H        93   U    0.4186
   2988 P          35.7330   25.2400   12.0080 P.3      94   G    1.1662
   2989 OP1        35.5130   23.9530   11.3040 O.co2    94   G   -0.7760
   2990 OP2        34.9840   26.4480   11.5870 O.co2    94   G   -0.7760
   2991 O5'        35.4710   25.0210   13.5710 O.3      94   G   -0.4989
   2992 C5'        36.2140   24.0350   14.2850 C.3      94   G    0.0558
   2993 C4'        35.8870   24.0740   15.7650 C.3      94   G    0.1065
   2994 O4'        36.4610   25.2550   16.3670 O.3      94   G   -0.3548
   2995 C3'        34.4090   24.1700   16.0980 C.3      94   G    0.2022
   2996 O3'        33.8380   22.8870   16.0440 O.3      94   G   -0.5246
   2997 C2'        34.4510   24.7240   17.5180 C.3      94   G    0.0670
   2998 O2'        34.6800   23.7370   18.5030 O.3      94   G   -0.6139
   2999 C1'        35.6470   25.6670   17.4470 C.3      94   G    0.0191
   3000 N9         35.2590   27.0540   17.2260 N.ar     94   G    0.0492
   3001 C8         35.0920   27.6910   16.0200 C.ar     94   G    0.1374
   3002 N7         34.7410   28.9400   16.1410 N.ar     94   G   -0.5709
   3003 C5         34.6700   29.1460   17.5150 C.ar     94   G    0.1744
   3004 C6         34.3400   30.3090   18.2560 C.2      94   G    0.4770
   3005 O6         34.0370   31.4280   17.8230 O.2      94   G   -0.5597
   3006 N1         34.3860   30.0810   19.6350 N.am     94   G   -0.4787
   3007 C2         34.7140   28.8790   20.2260 C.2      94   G    0.7657
   3008 N2         34.7120   28.8430   21.5660 N.pl3    94   G   -0.9672
   3009 N3         35.0260   27.7870   19.5430 N.2      94   G   -0.6323
   3010 C4         34.9830   27.9900   18.1980 C.ar     94   G    0.1222
   3011 H5'        35.9674   23.0489   13.8915 H        94   G    0.0679
   3012 H5''       37.2795   24.2197   14.1480 H        94   G    0.0679
   3013 H4'        36.3044   23.1895   16.2461 H        94   G    0.1174
   3014 H3'        33.8978   24.8565   15.4231 H        94   G    0.0615
   3015 H2'        33.5393   25.2793   17.7385 H        94   G    0.0972
   3016 H1'        36.2163   25.5962   18.3738 H        94   G    0.2006
   3017 H8         35.2372   27.2048   15.0666 H        94   G    0.1640
   3018 H1         34.1621   30.8550   20.2440 H        94   G    0.3424
   3019 H21        34.4763   29.6717   22.0931 H        94   G    0.4364
   3020 H22        34.9462   27.9872   22.0485 H        94   G    0.4364
   3021 HO2'       35.4671   23.2360   18.2768 H        94   G    0.4186
   3022 P          32.3020   22.6900   15.6620 P.3      95   G    1.1662
   3023 OP1        32.1480   21.2810   15.2340 O.co2    95   G   -0.7760
   3024 OP2        31.8690   23.7830   14.7610 O.co2    95   G   -0.7760
   3025 O5'        31.5730   22.8900   17.0700 O.3      95   G   -0.4989
   3026 C5'        31.9040   22.0400   18.1620 C.3      95   G    0.0558
   3027 C4'        31.3560   22.5960   19.4590 C.3      95   G    0.1065
   3028 O4'        32.0330   23.8330   19.7840 O.3      95   G   -0.3548
   3029 C3'        29.8880   22.9770   19.4150 C.3      95   G    0.2022
   3030 O3'        29.0840   21.8350   19.6350 O.3      95   G   -0.5246
   3031 C2'        29.8000   23.9670   20.5680 C.3      95   G    0.0670
   3032 O2'        29.7170   23.3240   21.8230 O.3      95   G   -0.6139
   3033 C1'        31.1340   24.7020   20.4480 C.3      95   G    0.0191
   3034 N9         31.0540   25.9680   19.7100 N.ar     95   G    0.0492
   3035 C8         31.0210   26.1380   18.3440 C.ar     95   G    0.1374
   3036 N7         30.9480   27.3870   17.9730 N.ar     95   G   -0.5709
   3037 C5         30.9330   28.0970   19.1680 C.ar     95   G    0.1744
   3038 C6         30.8690   29.4980   19.4050 C.2      95   G    0.4770
   3039 O6         30.8090   30.4210   18.5800 O.2      95   G   -0.5597
   3040 N1         30.8770   29.7960   20.7680 N.am     95   G   -0.4787
   3041 C2         30.9380   28.8630   21.7750 C.2      95   G    0.7657
   3042 N2         30.9410   29.3410   23.0280 N.pl3    95   G   -0.9672
   3043 N3         30.9980   27.5510   21.5670 N.2      95   G   -0.6323
   3044 C4         30.9940   27.2380   20.2450 C.ar     95   G    0.1222
   3045 H5'        32.9885   21.9602   18.2371 H        95   G    0.0679
   3046 H5''       31.4818   21.0502   17.9882 H        95   G    0.0679
   3047 H4'        31.5183   21.8739   20.2592 H        95   G    0.1174
   3048 H3'        29.6365   23.4557   18.4686 H        95   G    0.0615
   3049 H2'        28.9648   24.6532   20.4275 H        95   G    0.0972
   3050 H1'        31.5152   24.9030   21.4492 H        95   G    0.2006
   3051 H8         31.0526   25.3151   17.6453 H        95   G    0.1640
   3052 H1         30.8348   30.7694   21.0342 H        95   G    0.3424
   3053 H21        30.8976   30.3372   23.1886 H        95   G    0.4364
   3054 H22        30.9866   28.7048   23.8111 H        95   G    0.4364
   3055 HO2'       28.8772   22.8642   21.8925 H        95   G    0.4186
   3056 P          27.6530   21.7040   18.9300 P.3      96   A    1.1662
   3057 OP1        26.7380   22.6830   19.5550 O.co2    96   A   -0.7760
   3058 OP2        27.2880   20.2710   18.9270 O.co2    96   A   -0.7760
   3059 O5'        27.9350   22.1430   17.4130 O.3      96   A   -0.4989
   3060 C5'        26.9380   21.9100   16.4080 C.3      96   A    0.0558
   3061 C4'        26.8580   23.0350   15.3800 C.3      96   A    0.1065
   3062 O4'        26.3670   24.2580   15.9900 O.3      96   A   -0.3548
   3063 C3'        28.1640   23.4230   14.6970 C.3      96   A    0.2022
   3064 O3'        27.8800   23.8690   13.3630 O.3      96   A   -0.5246
   3065 C2'        28.6560   24.5590   15.5910 C.3      96   A    0.0670
   3066 O2'        29.5750   25.4020   14.9290 O.3      96   A   -0.6139
   3067 C1'        27.3400   25.2800   15.8840 C.3      96   A    0.0394
   3068 N9         27.3090   26.0360   17.1350 N.ar     96   A   -0.0251
   3069 C8         27.1140   25.5320   18.3910 C.ar     96   A    0.2006
   3070 N7         27.1220   26.4390   19.3370 N.ar     96   A   -0.6073
   3071 C5         27.3310   27.6260   18.6570 C.ar     96   A    0.0515
   3072 C6         27.4430   28.9680   19.0900 C.ar     96   A    0.7009
   3073 N6         27.3530   29.3460   20.3690 N.pl3    96   A   -0.9019
   3074 N1         27.6500   29.9130   18.1500 N.ar     96   A   -0.7615
   3075 C2         27.7400   29.5420   16.8670 C.ar     96   A    0.5875
   3076 N3         27.6480   28.3190   16.3430 N.ar     96   A   -0.6997
   3077 C4         27.4430   27.3970   17.2970 C.ar     96   A    0.3053
   3078 H5'        25.9679   21.8150   16.8959 H        96   A    0.0679
   3079 H5''       27.1671   20.9770   15.8931 H        96   A    0.0679
   3080 H4'        26.1496   22.7358   14.6075 H        96   A    0.1174
   3081 H3'        28.8687   22.5914   14.6928 H        96   A    0.0615
   3082 H2'        29.0901   24.1641   16.5095 H        96   A    0.0972
   3083 H1'        27.0902   25.9384   15.0520 H        96   A    0.2007
   3084 H8         26.9665   24.4801   18.5861 H        96   A    0.1553
   3085 H2         27.9101   30.3411   16.1607 H        96   A    0.0473
   3086 H61        27.1973   28.6559   21.0898 H        96   A    0.4115
   3087 H62        27.4407   30.3218   20.6146 H        96   A    0.4115
   3088 HO2'       30.3414   25.5425   15.4898 H        96   A    0.4186
   3089 P          27.9660   22.8620   12.1160 P.3      97   U    1.1662
   3090 OP1        27.7560   21.4870   12.6180 O.co2    97   U   -0.7760
   3091 OP2        29.2070   23.1760   11.3650 O.co2    97   U   -0.7760
   3092 O5'        26.7000   23.2720   11.2180 O.3      97   U   -0.4989
   3093 C5'        25.4070   23.4130   11.8130 C.3      97   U    0.0558
   3094 C4'        24.3300   22.5260   11.1880 C.3      97   U    0.1065
   3095 O4'        24.7550   21.9280    9.9330 O.3      97   U   -0.3548
   3096 C3'        23.8430   21.3820   12.0710 C.3      97   U    0.2022
   3097 O3'        22.4080   21.3070   12.0480 O.3      97   U   -0.5246
   3098 C2'        24.5110   20.1440   11.4630 C.3      97   U    0.0670
   3099 O2'        23.7240   18.9760   11.5820 O.3      97   U   -0.6139
   3100 C1'        24.6850   20.5130    9.9900 C.3      97   U    0.0674
   3101 N1         25.9480   19.9610    9.3620 N.am     97   U    0.0418
   3102 C2         26.0790   18.6050    9.0750 C.2      97   U    0.4687
   3103 O2         25.2140   17.7730    9.2970 O.2      97   U   -0.5477
   3104 N3         27.2860   18.2510    8.5080 N.am     97   U   -0.3549
   3105 C4         28.3560   19.0900    8.2030 C.2      97   U    0.5952
   3106 O4         29.3820   18.6350    7.6950 O.2      97   U   -0.5761
   3107 C5         28.1440   20.4780    8.5290 C.2      97   U   -0.3635
   3108 C6         26.9800   20.8460    9.0790 C.2      97   U   -0.1126
   3109 H5'        25.4877   23.1594   12.8700 H        97   U    0.0679
   3110 H5''       25.0950   24.4538   11.7268 H        97   U    0.0679
   3111 H4'        23.4701   23.1602   10.9723 H        97   U    0.1174
   3112 H3'        24.1912   21.5277   13.0936 H        97   U    0.0615
   3113 H2'        25.4858   19.9838   11.9236 H        97   U    0.0972
   3114 H1'        23.8186   20.1694    9.4249 H        97   U    0.1824
   3115 H3         27.4079   17.2726    8.2891 H        97   U    0.3154
   3116 H5         28.9129   21.2105    8.3325 H        97   U    0.1811
   3117 H6         26.8356   21.8898    9.3158 H        97   U    0.2188
   3118 HO2'       23.6205   18.7525   12.5099 H        97   U    0.4186
   3119 P          21.4830   22.3870   12.8020 P.3      98   G    1.1662
   3120 OP1        20.1540   21.7630   13.0040 O.co2    98   G   -0.7760
   3121 OP2        21.5750   23.6670   12.0660 O.co2    98   G   -0.7760
   3122 O5'        22.1940   22.5950   14.2290 O.3      98   G   -0.4989
   3123 C5'        21.9610   21.6850   15.3150 C.3      98   G    0.0558
   3124 C4'        22.2210   22.3200   16.6770 C.3      98   G    0.1065
   3125 O4'        23.5010   23.0080   16.6930 O.3      98   G   -0.3548
   3126 C3'        21.2210   23.3780   17.1200 C.3      98   G    0.2022
   3127 O3'        20.0530   22.7730   17.6750 O.3      98   G   -0.5246
   3128 C2'        22.0310   24.1120   18.1820 C.3      98   G    0.0670
   3129 O2'        22.0380   23.4360   19.4210 O.3      98   G   -0.6139
   3130 C1'        23.4340   24.1210   17.5740 C.3      98   G    0.0191
   3131 N9         23.7240   25.3640   16.8460 N.ar     98   G    0.0492
   3132 C8         23.8290   25.5240   15.4840 C.ar     98   G    0.1374
   3133 N7         24.0820   26.7490   15.1170 N.ar     98   G   -0.5709
   3134 C5         24.1370   27.4590   16.3090 C.ar     98   G    0.1744
   3135 C6         24.3750   28.8380   16.5430 C.2      98   G    0.4770
   3136 O6         24.5910   29.7330   15.7140 O.2      98   G   -0.5597
   3137 N1         24.3470   29.1510   17.9000 N.am     98   G   -0.4787
   3138 C2         24.1170   28.2410   18.9050 C.2      98   G    0.7657
   3139 N2         24.1300   28.7290   20.1510 N.pl3    98   G   -0.9672
   3140 N3         23.8960   26.9460   18.7040 N.2      98   G   -0.6323
   3141 C4         23.9190   26.6220   17.3850 C.ar     98   G    0.1222
   3142 H5'        22.6216   20.8259   15.1985 H        98   G    0.0679
   3143 H5''       20.9265   21.3439   15.2752 H        98   G    0.0679
   3144 H4'        22.2438   21.5302   17.4278 H        98   G    0.1174
   3145 H3'        20.9633   24.0427   16.2954 H        98   G    0.0615
   3146 H2'        21.6628   25.1304   18.3057 H        98   G    0.0972
   3147 H1'        24.1688   23.9925   18.3688 H        98   G    0.2006
   3148 H8         23.7126   24.7102   14.7835 H        98   G    0.1640
   3149 H1         24.5066   30.1127   18.1640 H        98   G    0.3424
   3150 H21        24.2997   29.7124   20.3064 H        98   G    0.4364
   3151 H22        23.9701   28.1139   20.9360 H        98   G    0.4364
   3152 HO2'       21.8232   24.0539   20.1236 H        98   G    0.4186
   3153 P          18.6410   23.5400   17.6650 P.3      99   A    1.1662
   3154 OP1        17.6000   22.5920   18.1130 O.co2    99   A   -0.7760
   3155 OP2        18.4920   24.2200   16.3540 O.co2    99   A   -0.7760
   3156 O5'        18.8270   24.6730   18.7840 O.3      99   A   -0.4989
   3157 C5'        19.0280   24.3310   20.1570 C.3      99   A    0.0558
   3158 C4'        19.2360   25.5790   20.9980 C.3      99   A    0.1065
   3159 O4'        20.5140   26.1830   20.6740 O.3      99   A   -0.3548
   3160 C3'        18.2080   26.6770   20.7640 C.3      99   A    0.2022
   3161 O3'        17.0970   26.5050   21.6270 O.3      99   A   -0.5246
   3162 C2'        18.9890   27.9470   21.0850 C.3      99   A    0.0670
   3163 O2'        19.0270   28.2390   22.4670 O.3      99   A   -0.6139
   3164 C1'        20.3800   27.5920   20.5770 C.3      99   A    0.0394
   3165 N9         20.6040   28.0090   19.1910 N.ar     99   A   -0.0251
   3166 C8         20.6180   27.2080   18.0820 C.ar     99   A    0.2006
   3167 N7         20.8460   27.8490   16.9620 N.ar     99   A   -0.6073
   3168 C5         20.9830   29.1670   17.3590 C.ar     99   A    0.0515
   3169 C6         21.2390   30.3490   16.6360 C.ar     99   A    0.7009
   3170 N6         21.4010   30.3610   15.3110 N.pl3    99   A   -0.9019
   3171 N1         21.3200   31.5130   17.3260 N.ar     99   A   -0.7615
   3172 C2         21.1590   31.4810   18.6560 C.ar     99   A    0.5875
   3173 N3         20.9110   30.4290   19.4440 N.ar     99   A   -0.6997
   3174 C4         20.8350   29.2900   18.7280 C.ar     99   A    0.3053
   3175 H5'        19.9075   23.6926   20.2412 H        99   A    0.0679
   3176 H5''       18.1553   23.7911   20.5245 H        99   A    0.0679
   3177 H4'        19.2292   25.3033   22.0525 H        99   A    0.1174
   3178 H3'        17.8849   26.6811   19.7230 H        99   A    0.0615
   3179 H2'        18.5852   28.7928   20.5285 H        99   A    0.0972
   3180 H1'        21.1247   28.0658   21.2166 H        99   A    0.2007
   3181 H8         20.4554   26.1412   18.1257 H        99   A    0.1553
   3182 H2         21.2405   32.4330   19.1595 H        99   A    0.0473
   3183 H61        21.3421   29.4994   14.7872 H        99   A    0.4115
   3184 H62        21.5825   31.2316   14.8323 H        99   A    0.4115
   3185 HO2'       19.6144   28.9826   22.6207 H        99   A    0.4186
   3186 P          15.6570   27.0220   21.1630 P.3     100   G    1.1662
   3187 OP1        14.6740   26.6540   22.2060 O.co2   100   G   -0.7760
   3188 OP2        15.4430   26.5870   19.7630 O.co2   100   G   -0.7760
   3189 O5'        15.8310   28.6080   21.1630 O.3     100   G   -0.4989
   3190 C5'        15.8530   29.3400   22.3800 C.3     100   G    0.0558
   3191 C4'        16.1250   30.7970   22.0760 C.3     100   G    0.1065
   3192 O4'        17.3640   30.9000   21.3320 O.3     100   G   -0.3548
   3193 C3'        15.1080   31.4290   21.1450 C.3     100   G    0.2022
   3194 O3'        13.9930   31.8970   21.8530 O.3     100   G   -0.5246
   3195 C2'        15.9070   32.5600   20.5160 C.3     100   G    0.0670
   3196 O2'        16.0810   33.6510   21.3950 O.3     100   G   -0.6139
   3197 C1'        17.2340   31.8580   20.2950 C.3     100   G    0.0191
   3198 N9         17.3290   31.1940   18.9980 N.ar    100   G    0.0492
   3199 C8         17.0180   29.8910   18.6870 C.ar    100   G    0.1374
   3200 N7         17.2180   29.5910   17.4340 N.ar    100   G   -0.5709
   3201 C5         17.6920   30.7720   16.8740 C.ar    100   G    0.1744
   3202 C6         18.0870   31.0690   15.5420 C.2     100   G    0.4770
   3203 O6         18.0920   30.3140   14.5580 O.2     100   G   -0.5597
   3204 N1         18.5100   32.3960   15.4050 N.am    100   G   -0.4787
   3205 C2         18.5450   33.3160   16.4320 C.2     100   G    0.7657
   3206 N2         18.9740   34.5450   16.1270 N.pl3   100   G   -0.9672
   3207 N3         18.1790   33.0510   17.6790 N.2     100   G   -0.6323
   3208 C4         17.7620   31.7670   17.8280 C.ar    100   G    0.1222
   3209 H5'        16.6386   28.9493   23.0267 H       100   G    0.0679
   3210 H5''       14.8889   29.2456   22.8797 H       100   G    0.0679
   3211 H4'        16.1935   31.3681   23.0019 H       100   G    0.1174
   3212 H3'        14.7988   30.7147   20.3820 H       100   G    0.0615
   3213 H2'        15.4658   32.8789   19.5717 H       100   G    0.0972
   3214 H1'        18.0401   32.5866   20.3811 H       100   G    0.2006
   3215 H8         16.6436   29.1833   19.4119 H       100   G    0.1640
   3216 H1         18.8106   32.7012   14.4904 H       100   G    0.3424
   3217 H21        19.2546   34.7617   15.1813 H       100   G    0.4364
   3218 H22        19.0175   35.2567   16.8423 H       100   G    0.4364
   3219 HO2'       16.9921   33.9510   21.3569 H       100   G    0.4186
   3220 P          12.6510   32.1510   21.0280 P.3     101   A    1.1662
   3221 OP1        11.5070   31.6570   21.8340 O.co2   101   A   -0.7760
   3222 OP2        12.8640   31.6280   19.6560 O.co2   101   A   -0.7760
   3223 O5'        12.5980   33.7520   20.9480 O.3     101   A   -0.4989
   3224 C5'        12.7600   34.5310   22.1290 C.3     101   A    0.0558
   3225 C4'        13.4510   35.8450   21.8250 C.3     101   A    0.1065
   3226 O4'        14.6560   35.5890   21.0610 O.3     101   A   -0.3548
   3227 C3'        12.6530   36.8140   20.9650 C.3     101   A    0.2022
   3228 O3'        11.7750   37.5810   21.7680 O.3     101   A   -0.5246
   3229 C2'        13.7610   37.6720   20.3570 C.3     101   A    0.0670
   3230 O2'        14.1980   38.7210   21.1990 O.3     101   A   -0.6139
   3231 C1'        14.8830   36.6520   20.1520 C.3     101   A    0.0394
   3232 N9         14.8780   36.1450   18.7820 N.ar    101   A   -0.0251
   3233 C8         13.9700   35.2850   18.2220 C.ar    101   A    0.2006
   3234 N7         14.1880   35.0290   16.9550 N.ar    101   A   -0.6073
   3235 C5         15.3080   35.7870   16.6590 C.ar    101   A    0.0515
   3236 C6         16.0440   35.9580   15.4730 C.ar    101   A    0.7009
   3237 N6         15.7290   35.3380   14.3320 N.pl3   101   A   -0.9019
   3238 N1         17.1130   36.7840   15.5090 N.ar    101   A   -0.7615
   3239 C2         17.4180   37.3990   16.6600 C.ar    101   A    0.5875
   3240 N3         16.7990   37.3200   17.8380 N.ar    101   A   -0.6997
   3241 C4         15.7450   36.4870   17.7700 C.ar    101   A    0.3053
   3242 H5'        13.3605   33.9705   22.8455 H       101   A    0.0679
   3243 H5''       11.7805   34.7329   22.5625 H       101   A    0.0679
   3244 H4'        13.7181   36.3341   22.7617 H       101   A    0.1174
   3245 H3'        12.1037   36.2819   20.1883 H       101   A    0.0615
   3246 H2'        13.4393   38.0728   19.3958 H       101   A    0.0972
   3247 H1'        15.8448   37.1178   20.3664 H       101   A    0.2007
   3248 H8         13.1477   34.8561   18.7754 H       101   A    0.1553
   3249 H2         18.2821   38.0461   16.6290 H       101   A    0.0473
   3250 HO2'       13.9781   38.5134   22.1101 H       101   A    0.4186
   3251 H61        16.1392   35.4459   13.4154 H       101   A    0.4115
   3252 H62        14.9757   34.6682   14.3950 H       101   A    0.4115
   3253 P          10.1880   37.3760   21.6820 P.3     102   G    1.1662
   3254 OP1         9.5520   38.6610   22.0550 O.co2   102   G   -0.7760
   3255 OP2         9.8620   36.1460   22.4320 O.co2   102   G   -0.7760
   3256 O5'         9.9140   37.0600   20.1360 O.3     102   G   -0.4989
   3257 C5'         9.2940   38.0180   19.2820 C.3     102   G    0.0558
   3258 C4'        10.0040   38.1170   17.9410 C.3     102   G    0.1065
   3259 O4'        11.1280   37.1990   17.8720 O.3     102   G   -0.3548
   3260 C3'         9.1560   37.7610   16.7350 C.3     102   G    0.2022
   3261 O3'         8.3850   38.8680   16.3430 O.3     102   G   -0.5246
   3262 C2'        10.2150   37.4250   15.6950 C.3     102   G    0.0670
   3263 O2'        10.7740   38.5660   15.0700 O.3     102   G   -0.6139
   3264 C1'        11.2560   36.7060   16.5490 C.3     102   G    0.0191
   3265 N9         11.0620   35.2580   16.5630 N.ar    102   G    0.0492
   3266 C8         10.6460   34.4820   17.6200 C.ar    102   G    0.1374
   3267 N7         10.5600   33.2160   17.3260 N.ar    102   G   -0.5709
   3268 C5         10.9370   33.1470   15.9890 C.ar    102   G    0.1744
   3269 C6         11.0380   32.0330   15.1200 C.2     102   G    0.4770
   3270 O6         10.8090   30.8430   15.3710 O.2     102   G   -0.5597
   3271 N1         11.4600   32.4020   13.8430 N.am    102   G   -0.4787
   3272 C2         11.7440   33.6890   13.4540 C.2     102   G    0.7657
   3273 N2         12.1320   33.8610   12.1850 N.pl3   102   G   -0.9672
   3274 N3         11.6550   34.7390   14.2570 N.2     102   G   -0.6323
   3275 C4         11.2470   34.3960   15.5060 C.ar    102   G    0.1222
   3276 H5'         9.3193   38.9933   19.7680 H       102   G    0.0679
   3277 H5''        8.2562   37.7290   19.1158 H       102   G    0.0679
   3278 H4'        10.3762   39.1340   17.8177 H       102   G    0.1174
   3279 H3'         8.5237   36.8977   16.9425 H       102   G    0.0615
   3280 H2'         9.8068   36.7462   14.9462 H       102   G    0.0972
   3281 H1'        12.2532   36.9340   16.1726 H       102   G    0.2006
   3282 H8         10.4140   34.8824   18.5958 H       102   G    0.1640
   3283 H1         11.5644   31.6705   13.1544 H       102   G    0.3424
   3284 H21        12.2030   33.0658   11.5664 H       102   G    0.4364
   3285 H22        12.3539   34.7861   11.8457 H       102   G    0.4364
   3286 HO2'       11.4524   38.9414   15.6361 H       102   G    0.4186
   3287 P           6.9770   38.6280   15.6260 P.3     103   A    1.1662
   3288 OP1         6.3020   39.9420   15.5280 O.co2   103   A   -0.7760
   3289 OP2         6.2820   37.4960   16.2910 O.co2   103   A   -0.7760
   3290 O5'         7.4180   38.1570   14.1620 O.3     103   A   -0.4989
   3291 C5'         7.8970   39.1180   13.2250 C.3     103   A    0.0558
   3292 C4'         8.3230   38.4630   11.9250 C.3     103   A    0.1065
   3293 O4'         9.3490   37.4780   12.2010 O.3     103   A   -0.3548
   3294 C3'         7.2400   37.6790   11.1970 C.3     103   A    0.2022
   3295 O3'         6.4100   38.5180   10.4150 O.3     103   A   -0.5246
   3296 C2'         8.0760   36.7270   10.3520 C.3     103   A    0.0670
   3297 O2'         8.6400   37.3280    9.2030 O.3     103   A   -0.6139
   3298 C1'         9.1670   36.3600   11.3500 C.3     103   A    0.0394
   3299 N9          8.8000   35.2070   12.1610 N.ar    103   A   -0.0251
   3300 C8          8.4170   35.2050   13.4720 C.ar    103   A    0.2006
   3301 N7          8.1390   34.0130   13.9360 N.ar    103   A   -0.6073
   3302 C5          8.3500   33.1750   12.8530 C.ar    103   A    0.0515
   3303 C6          8.2290   31.7790   12.6900 C.ar    103   A    0.7009
   3304 N6          7.8460   30.9600   13.6750 N.pl3   103   A   -0.9019
   3305 N1          8.5160   31.2580   11.4740 N.ar    103   A   -0.7615
   3306 C2          8.8960   32.0840   10.4890 C.ar    103   A    0.5875
   3307 N3          9.0480   33.4080   10.5240 N.ar    103   A   -0.6997
   3308 C4          8.7550   33.8960   11.7460 C.ar    103   A    0.3053
   3309 H5'         7.1032   39.8353   13.0165 H       103   A    0.0679
   3310 H5''        8.7491   39.6435   13.6562 H       103   A    0.0679
   3311 H4'         8.7264   39.2231   11.2560 H       103   A    0.1174
   3312 H3'         6.6388   37.1170   11.9117 H       103   A    0.0615
   3313 H2'         7.4949   35.8464   10.0781 H       103   A    0.0972
   3314 H1'        10.0947   36.1515   10.8171 H       103   A    0.2007
   3315 H8          8.3499   36.1022   14.0694 H       103   A    0.1553
   3316 H2          9.1073   31.6139    9.5399 H       103   A    0.0473
   3317 H61         7.6282   31.3346   14.5873 H       103   A    0.4115
   3318 H62         7.7745   29.9667   13.5068 H       103   A    0.4115
   3319 HO2'        7.9418   37.5536    8.5839 H       103   A    0.4186
   3320 P           4.8200   38.4130   10.5920 P.3     104   A    1.1662
   3321 OP1         4.2960   39.7780   10.8210 O.co2   104   A   -0.7760
   3322 OP2         4.5230   37.3440   11.5770 O.co2   104   A   -0.7760
   3323 O5'         4.3240   37.9160    9.1500 O.3     104   A   -0.4989
   3324 C5'         3.8080   36.5980    8.9590 C.3     104   A    0.0558
   3325 C4'         4.6140   35.8580    7.9040 C.3     104   A    0.1065
   3326 O4'         5.8550   35.3890    8.4880 O.3     104   A   -0.3548
   3327 C3'         3.9420   34.6110    7.3460 C.3     104   A    0.2022
   3328 O3'         3.2170   34.9220    6.1720 O.3     104   A   -0.5246
   3329 C2'         5.1130   33.6690    7.0890 C.3     104   A    0.0670
   3330 O2'         5.8140   33.9610    5.8960 O.3     104   A   -0.6139
   3331 C1'         5.9850   33.9930    8.2930 C.3     104   A    0.0394
   3332 N9          5.6070   33.2980    9.5280 N.ar    104   A   -0.0251
   3333 C8          5.2650   33.8690   10.7250 C.ar    104   A    0.2006
   3334 N7          4.9790   33.0060   11.6690 N.ar    104   A   -0.6073
   3335 C5          5.1510   31.7780   11.0530 C.ar    104   A    0.0515
   3336 C6          5.0090   30.4530   11.5180 C.ar    104   A    0.7009
   3337 N6          4.6400   30.1480   12.7660 N.pl3   104   A   -0.9019
   3338 N1          5.2520   29.4490   10.6460 N.ar    104   A   -0.7615
   3339 C2          5.6210   29.7550    9.3930 C.ar    104   A    0.5875
   3340 N3          5.7940   30.9580    8.8440 N.ar    104   A   -0.6997
   3341 C4          5.5380   31.9370    9.7330 C.ar    104   A    0.3053
   3342 H5'         3.8628   36.0516    9.9006 H       104   A    0.0679
   3343 H5''        2.7679   36.6612    8.6391 H       104   A    0.0679
   3344 H4'         4.8401   36.5395    7.0839 H       104   A    0.1174
   3345 H3'         3.2749   34.1811    8.0932 H       104   A    0.0615
   3346 H2'         4.7898   32.6282    7.1084 H       104   A    0.0972
   3347 H1'         7.0231   33.7605    8.0554 H       104   A    0.2007
   3348 H8          5.2337   34.9377   10.8777 H       104   A    0.1553
   3349 H2          5.8025   28.9135    8.7408 H       104   A    0.0473
   3350 H61         4.4506   30.8844   13.4308 H       104   A    0.4115
   3351 H62         4.5506   29.1812   13.0442 H       104   A    0.4115
   3352 HO2'        5.2596   33.7549    5.1399 H       104   A    0.4186
   3353 P           1.6520   35.1850    6.3200 P.3     105   G    1.1662
   3354 OP1         1.0140   34.9670    5.0040 O.co2   105   G   -0.7760
   3355 OP2         1.4810   36.4820    7.0130 O.co2   105   G   -0.7760
   3356 O5'         1.2070   34.0190    7.3250 O.3     105   G   -0.4989
   3357 C5'         0.3680   32.9510    6.8860 C.3     105   G    0.0558
   3358 C4'         1.1710   31.8350    6.2310 C.3     105   G    0.1065
   3359 O4'         2.4260   31.6240    6.9330 O.3     105   G   -0.3548
   3360 C3'         0.4610   30.4870    6.2180 C.3     105   G    0.2022
   3361 O3'        -0.1900   30.3020    4.9740 O.3     105   G   -0.5246
   3362 C2'         1.5880   29.4800    6.4170 C.3     105   G    0.0670
   3363 O2'         2.2010   29.0980    5.2020 O.3     105   G   -0.6139
   3364 C1'         2.5660   30.2610    7.2910 C.3     105   G    0.0191
   3365 N9          2.3310   30.1170    8.7320 N.ar    105   G    0.0492
   3366 C8          2.1440   31.1340    9.6420 C.ar    105   G    0.1374
   3367 N7          1.9530   30.7200   10.8630 N.ar    105   G   -0.5709
   3368 C5          2.0150   29.3370   10.7640 C.ar    105   G    0.1744
   3369 C6          1.8890   28.3480   11.7690 C.2     105   G    0.4770
   3370 O6          1.6840   28.5130   12.9770 O.2     105   G   -0.5597
   3371 N1          2.0210   27.0580   11.2540 N.am    105   G   -0.4787
   3372 C2          2.2470   26.7620    9.9290 C.2     105   G    0.7657
   3373 N2          2.3450   25.4630    9.6160 N.pl3   105   G   -0.9672
   3374 N3          2.3740   27.6800    8.9780 N.2     105   G   -0.6323
   3375 C4          2.2470   28.9450    9.4620 C.ar    105   G    0.1222
   3376 H5'        -0.1648   32.5446    7.7457 H       105   G    0.0679
   3377 H5''       -0.3556   33.3379    6.1685 H       105   G    0.0679
   3378 H4'         1.3914   32.1221    5.2029 H       105   G    0.1174
   3379 H3'        -0.2556   30.4249    7.0370 H       105   G    0.0615
   3380 H2'         1.2220   28.6020    6.9492 H       105   G    0.0972
   3381 H1'         3.5816   29.9371    7.0633 H       105   G    0.2006
   3382 H8          2.1547   32.1788    9.3687 H       105   G    0.1640
   3383 H1          1.9452   26.2855   11.9003 H       105   G    0.3424
   3384 H21         2.2512   24.7615   10.3365 H       105   G    0.4364
   3385 H22         2.5127   25.1853    8.6595 H       105   G    0.4364
   3386 HO2'        1.5726   28.6088    4.6659 H       105   G    0.4186
   3387 P          -1.7290   29.8750    4.9570 P.3     106   A    1.1662
   3388 OP1        -2.1980   29.8890    3.5530 O.co2   106   A   -0.7760
   3389 OP2        -2.4340   30.6870    5.9740 O.co2   106   A   -0.7760
   3390 O5'        -1.6890   28.3630    5.4780 O.3     106   A   -0.4989
   3391 C5'        -1.1650   27.3270    4.6530 C.3     106   A    0.0558
   3392 C4'        -1.1720   26.0010    5.3910 C.3     106   A    0.1065
   3393 O4'        -0.1770   26.0320    6.4480 O.3     106   A   -0.3548
   3394 C3'        -2.4590   25.6730    6.1300 C.3     106   A    0.2022
   3395 O3'        -3.4370   25.1340    5.2650 O.3     106   A   -0.5246
   3396 C2'        -1.9650   24.6490    7.1400 C.3     106   A    0.0670
   3397 O2'        -1.7160   23.3850    6.5550 O.3     106   A   -0.6139
   3398 C1'        -0.6560   25.3010    7.5690 C.3     106   A    0.0394
   3399 N9         -0.8060   26.2020    8.7160 N.ar    106   A   -0.0251
   3400 C8         -0.8400   27.5730    8.6980 C.ar    106   A    0.2006
   3401 N7         -0.9790   28.1190    9.8840 N.ar    106   A   -0.6073
   3402 C5         -1.0510   27.0330   10.7430 C.ar    106   A    0.0515
   3403 C6         -1.1960   26.9370   12.1440 C.ar    106   A    0.7009
   3404 N6         -1.3100   28.0010   12.9460 N.pl3   106   A   -0.9019
   3405 N1         -1.2220   25.7000   12.6870 N.ar    106   A   -0.7615
   3406 C2         -1.1110   24.6350   11.8790 C.ar    106   A    0.5875
   3407 N3         -0.9650   24.5990   10.5550 N.ar    106   A   -0.6997
   3408 C4         -0.9440   25.8430   10.0410 C.ar    106   A    0.3053
   3409 H5'        -1.7769   27.2403    3.7552 H       106   A    0.0679
   3410 H5''       -0.1424   27.5755    4.3690 H       106   A    0.0679
   3411 H4'        -0.9375   25.1960    4.6945 H       106   A    0.1174
   3412 H3'        -2.8438   26.5569    6.6386 H       106   A    0.0615
   3413 H2'        -2.6540   24.5632    7.9802 H       106   A    0.0972
   3414 H1'         0.0640   24.5221    7.8200 H       106   A    0.2007
   3415 H8         -0.7596   28.1517    7.7897 H       106   A    0.1553
   3416 H2         -1.1446   23.6734   12.3696 H       106   A    0.0473
   3417 H61        -1.2935   28.9321   12.5551 H       106   A    0.4115
   3418 H62        -1.4126   27.8735   13.9426 H       106   A    0.4115
   3419 HO2'       -2.5475   22.9854    6.2895 H       106   A    0.4186
   3420 P          -4.9800   25.3780    5.6100 P.3     107   U    1.1662
   3421 OP1        -5.7790   24.9680    4.4340 O.co2   107   U   -0.7760
   3422 OP2        -5.1100   26.7510    6.1450 O.co2   107   U   -0.7760
   3423 O5'        -5.2560   24.3660    6.8200 O.3     107   U   -0.4989
   3424 C5'        -5.3940   22.9700    6.5860 C.3     107   U    0.0558
   3425 C4'        -5.4630   22.2150    7.8990 C.3     107   U    0.1065
   3426 O4'        -4.3540   22.6210    8.7440 O.3     107   U   -0.3548
   3427 C3'        -6.6960   22.5020    8.7430 C.3     107   U    0.2022
   3428 O3'        -7.8150   21.7240    8.3280 O.3     107   U   -0.5246
   3429 C2'        -6.1970   22.1050   10.1260 C.3     107   U    0.0670
   3430 O2'        -6.1990   20.7060   10.3370 O.3     107   U   -0.6139
   3431 C1'        -4.7730   22.6540   10.0980 C.3     107   U    0.0674
   3432 N1         -4.6930   24.0570   10.6390 N.am    107   U    0.0418
   3433 C2         -4.6850   24.2490   12.0130 C.2     107   U    0.4687
   3434 O2         -4.7250   23.3340   12.8230 O.2     107   U   -0.5477
   3435 N3         -4.6250   25.5650   12.4130 N.am    107   U   -0.3549
   3436 C4         -4.5770   26.6860   11.5990 C.2     107   U    0.5952
   3437 O4         -4.5290   27.8010   12.1070 O.2     107   U   -0.5761
   3438 C5         -4.5960   26.4120   10.1830 C.2     107   U   -0.3635
   3439 C6         -4.6530   25.1380    9.7680 C.2     107   U   -0.1126
   3440 H5'        -6.3083   22.7900    6.0206 H       107   U    0.0679
   3441 H5''       -4.5389   22.6149    6.0108 H       107   U    0.0679
   3442 H4'        -5.3978   21.1444    7.7052 H       107   U    0.1174
   3443 H3'        -6.9385   23.5643    8.7153 H       107   U    0.0615
   3444 H2'        -6.7813   22.6057   10.8980 H       107   U    0.0972
   3445 H1'        -4.1270   22.0047   10.6889 H       107   U    0.1824
   3446 H3         -4.6148   25.7320   13.4090 H       107   U    0.3154
   3447 H5         -4.5648   27.2206    9.4678 H       107   U    0.1811
   3448 H6         -4.6685   24.9434    8.7058 H       107   U    0.2188
   3449 HO2'       -5.7768   20.5083   11.1762 H       107   U    0.4186
   3450 P          -9.3040   22.3040    8.5020 P.3     108   U    1.1662
   3451 OP1       -10.2440   21.3820    7.8270 O.co2   108   U   -0.7760
   3452 OP2        -9.2870   23.7350    8.1220 O.co2   108   U   -0.7760
   3453 O5'        -9.5610   22.2210   10.0780 O.3     108   U   -0.4989
   3454 C5'        -9.5370   20.9670   10.7530 C.3     108   U    0.0558
   3455 C4'        -9.4200   21.1750   12.2490 C.3     108   U    0.1065
   3456 O4'        -8.2030   21.9010   12.5610 O.3     108   U   -0.3548
   3457 C3'       -10.5230   22.0340   12.8350 C.3     108   U    0.2022
   3458 O3'       -11.6710   21.2520   13.0880 O.3     108   U   -0.5246
   3459 C2'        -9.8740   22.5690   14.1060 C.3     108   U    0.0670
   3460 O2'        -9.9070   21.6490   15.1790 O.3     108   U   -0.6139
   3461 C1'        -8.4380   22.7940   13.6370 C.3     108   U    0.0674
   3462 N1         -8.1820   24.2070   13.1980 N.am    108   U    0.0418
   3463 C2         -7.9240   25.1660   14.1570 C.2     108   U    0.4687
   3464 O2         -7.8840   24.9230   15.3470 O.2     108   U   -0.5477
   3465 N3         -7.7060   26.4320   13.6700 N.am    108   U   -0.3549
   3466 C4         -7.7240   26.8270   12.3440 C.2     108   U    0.5952
   3467 O4         -7.5060   27.9990   12.0570 O.2     108   U   -0.5761
   3468 C5         -8.0040   25.7740   11.4000 C.2     108   U   -0.3635
   3469 C6         -8.2190   24.5340   11.8540 C.2     108   U   -0.1126
   3470 H5'       -10.4577   20.4251   10.5367 H       108   U    0.0679
   3471 H5''       -8.6849   20.3848   10.4021 H       108   U    0.0679
   3472 H4'        -9.4060   20.2077   12.7512 H       108   U    0.1174
   3473 H3'       -10.7645   22.8540   12.1587 H       108   U    0.0615
   3474 H2'       -10.3318   23.5137   14.3994 H       108   U    0.0972
   3475 H1'        -7.7581   22.5496   14.4531 H       108   U    0.1824
   3476 H3         -7.5120   27.1508   14.3524 H       108   U    0.3154
   3477 H5         -8.0397   25.9832   10.3411 H       108   U    0.1811
   3478 H6         -8.4311   23.7528   11.1390 H       108   U    0.2188
   3479 HO2'       -9.3904   21.9932   15.9113 H       108   U    0.4186
   3480 PC        -16.1180   25.0080   17.9260 P.3     109 CCC    0.2596
   3481 O1C       -17.2780   25.4840   17.0790 O.co2   109 CCC   -0.5137
   3482 O2C       -16.5110   24.9380   19.3830 O.co2   109 CCC   -0.5137
   3483 P         -13.1050   21.9430   12.9530 P.3     109 CCC    0.2584
   3484 OP1       -14.1690   20.8680   12.9420 O.co2   109 CCC   -0.5137
   3485 OP2       -13.0330   22.9410   11.8200 O.co2   109 CCC   -0.5137
   3486 O5'       -13.2200   22.7520   14.3410 O.3     109 CCC   -0.3224
   3487 C5'       -13.2360   22.0650   15.5940 C.3     109 CCC    0.0801
   3488 C4'       -13.3850   23.0850   16.7150 C.3     109 CCC    0.1095
   3489 O4'       -12.2540   23.9570   16.6820 O.3     109 CCC   -0.3520
   3490 C3'       -14.6290   23.9280   16.4690 C.3     109 CCC    0.1213
   3491 O3'       -15.6280   23.5860   17.4230 O.3     109 CCC   -0.3161
   3492 C2'       -14.1710   25.3720   16.6480 C.3     109 CCC    0.1345
   3493 O2'       -14.8530   25.9850   17.7420 O.3     109 CCC   -0.3144
   3494 C1'       -12.6760   25.2990   16.9250 C.3     109 CCC    0.1574
   3495 N1        -11.9420   26.2010   16.0440 N.am    109 CCC   -0.2324
   3496 C2        -11.1490   27.1300   16.5650 C.2     109 CCC    0.3391
   3497 O2        -11.0140   27.2350   17.7720 O.2     109 CCC   -0.2519
   3498 N3        -10.4990   27.9340   15.7430 N.2     109 CCC   -0.1840
   3499 C4        -10.7060   27.7440   14.4480 C.2     109 CCC    0.1179
   3500 N4        -10.0940   28.5170   13.5570 N.pl3   109 CCC   -0.3467
   3501 C5        -11.4900   26.8300   14.0630 C.2     109 CCC   -0.0112
   3502 C6        -12.0630   26.1130   14.8300 C.2     109 CCC    0.0029
   3503 H5'       -12.3034   21.5153   15.7215 H       109 CCC    0.0564
   3504 H5''      -14.0755   21.3703   15.6187 H       109 CCC    0.0564
   3505 H4'       -13.4503   22.5828   17.6802 H       109 CCC    0.0622
   3506 H3'       -15.0007   23.7701   15.4566 H       109 CCC    0.0631
   3507 H2'       -14.3528   25.9361   15.7332 H       109 CCC    0.0647
   3508 H1'       -12.4818   25.5625   17.9647 H       109 CCC    0.0819
   3509 H5        -11.6480   26.6916   13.0036 H       109 CCC    0.0636
   3510 H6        -12.7180   25.3521   14.4319 H       109 CCC    0.0759
   3511 H41        -9.4696   29.2479   13.8668 H       109 CCC    0.1405
   3512 H42       -10.2533   28.3736   12.5700 H       109 CCC    0.1405
@<TRIPOS>BOND
     1    1    2 1
     2    1    3 1
     3    1    4 1
     4    1    5 1
     5    5    6 1
     6    6    7 1
     7    6    8 1
     8    6    9 1
     9    9   10 1
    10   10   11 1
    11   10   12 1
    12   10   13 1
    13   13   14 1
    14   14   15 1
    15   15   16 1
    16   15   17 1
    17   16   21 1
    18   17   18 1
    19   17   19 1
    20   19   20 1
    21   19   21 1
    22   21   22 1
    23   22   23 ar
    24   22   32 ar
    25   23   24 ar
    26   24   25 ar
    27   25   26 1
    28   25   32 ar
    29   26   27 2
    30   26   28 2
    31   28   29 2
    32   29   30 2
    33   29   31 2
    34   31   32 1
    35   44   45 1
    36   44   46 1
    37   44   47 1
    38   47   48 1
    39   48   49 1
    40   49   51 1
    41   49   50 1
    42   50   55 1
    43   51   53 1
    44   51   52 1
    45   53   55 1
    46   53   54 1
    47   55   56 1
    48   56   66 ar
    49   56   57 ar
    50   57   58 ar
    51   58   59 ar
    52   59   66 ar
    53   59   60 1
    54   60   61 2
    55   60   62 am
    56   62   63 1
    57   63   64 2
    58   63   65 2
    59   65   66 1
    60   44   18 1
    61   78   80 1
    62   78   81 1
    63   78   79 1
    64   81   82 1
    65   82   83 1
    66   83   84 1
    67   83   85 1
    68   84   89 1
    69   85   87 1
    70   85   86 1
    71   87   88 1
    72   87   89 1
    73   89   90 1
    74   90   91 ar
    75   90   99 ar
    76   91   92 ar
    77   92   93 ar
    78   93   94 ar
    79   93   99 ar
    80   94   96 ar
    81   94   95 1
    82   96   97 ar
    83   97   98 ar
    84   98   99 ar
    85   52   78 1
    86  111  112 1
    87  111  113 1
    88  111  114 1
    89  114  115 1
    90  115  116 1
    91  116  117 1
    92  116  118 1
    93  117  122 1
    94  118  119 1
    95  118  120 1
    96  120  121 1
    97  120  122 1
    98  122  123 1
    99  123  130 1
   100  123  124 am
   101  124  126 am
   102  124  125 2
   103  126  127 am
   104  127  128 2
   105  127  129 1
   106  129  130 2
   107   86  111 1
   108  141  142 1
   109  141  143 1
   110  141  144 1
   111  144  145 1
   112  145  146 1
   113  146  148 1
   114  146  147 1
   115  147  152 1
   116  148  150 1
   117  148  149 1
   118  150  151 1
   119  150  152 1
   120  152  153 1
   121  153  154 am
   122  153  160 1
   123  154  156 1
   124  154  155 2
   125  156  157 2
   126  157  159 2
   127  157  158 2
   128  159  160 2
   129  119  141 1
   130  172  173 1
   131  172  174 1
   132  172  175 1
   133  175  176 1
   134  176  177 1
   135  177  178 1
   136  177  179 1
   137  178  183 1
   138  179  180 1
   139  179  181 1
   140  181  182 1
   141  181  183 1
   142  183  184 1
   143  184  191 1
   144  184  185 am
   145  185  187 am
   146  185  186 2
   147  187  188 am
   148  188  189 2
   149  188  190 1
   150  190  191 2
   151  149  172 1
   152  202  203 1
   153  202  204 1
   154  202  205 1
   155  205  206 1
   156  206  207 1
   157  207  208 1
   158  207  209 1
   159  208  213 1
   160  209  210 1
   161  209  211 1
   162  211  212 1
   163  211  213 1
   164  213  214 1
   165  214  221 1
   166  214  215 am
   167  215  217 am
   168  215  216 2
   169  217  218 am
   170  218  219 2
   171  218  220 1
   172  220  221 2
   173  180  202 1
   174  232  233 1
   175  232  234 1
   176  232  235 1
   177  235  236 1
   178  236  237 1
   179  237  239 1
   180  237  238 1
   181  238  243 1
   182  239  241 1
   183  239  240 1
   184  241  242 1
   185  241  243 1
   186  243  244 1
   187  244  245 am
   188  244  251 1
   189  245  247 1
   190  245  246 2
   191  247  248 2
   192  248  250 2
   193  248  249 2
   194  250  251 2
   195  210  232 1
   196  263  264 1
   197  263  265 1
   198  263  266 1
   199  266  267 1
   200  267  268 1
   201  268  270 1
   202  268  269 1
   203  269  274 1
   204  270  272 1
   205  270  271 1
   206  272  274 1
   207  272  273 1
   208  274  275 1
   209  275  285 ar
   210  275  276 ar
   211  276  277 ar
   212  277  278 ar
   213  278  285 ar
   214  278  279 1
   215  279  280 2
   216  279  281 am
   217  281  282 1
   218  282  283 2
   219  282  284 2
   220  284  285 1
   221  240  263 1
   222  297  298 1
   223  297  299 1
   224  297  300 1
   225  300  301 1
   226  301  302 1
   227  302  304 1
   228  302  303 1
   229  303  308 1
   230  304  306 1
   231  304  305 1
   232  306  308 1
   233  306  307 1
   234  308  309 1
   235  309  319 ar
   236  309  310 ar
   237  310  311 ar
   238  311  312 ar
   239  312  319 ar
   240  312  313 1
   241  313  314 2
   242  313  315 am
   243  315  316 1
   244  316  317 2
   245  316  318 2
   246  318  319 1
   247  271  297 1
   248  331  332 1
   249  331  333 1
   250  331  334 1
   251  334  335 1
   252  335  336 1
   253  336  338 1
   254  336  337 1
   255  337  342 1
   256  338  340 1
   257  338  339 1
   258  340  342 1
   259  340  341 1
   260  342  343 1
   261  343  353 ar
   262  343  344 ar
   263  344  345 ar
   264  345  346 ar
   265  346  353 ar
   266  346  347 1
   267  347  348 2
   268  347  349 am
   269  349  350 1
   270  350  351 2
   271  350  352 2
   272  352  353 1
   273  305  331 1
   274  365  366 1
   275  365  367 1
   276  365  368 1
   277  368  369 1
   278  369  370 1
   279  370  372 1
   280  370  371 1
   281  371  376 1
   282  372  374 1
   283  372  373 1
   284  374  376 1
   285  374  375 1
   286  376  377 1
   287  377  387 ar
   288  377  378 ar
   289  378  379 ar
   290  379  380 ar
   291  380  387 ar
   292  380  381 1
   293  381  382 2
   294  381  383 am
   295  383  384 1
   296  384  385 2
   297  384  386 2
   298  386  387 1
   299  339  365 1
   300  399  400 1
   301  399  401 1
   302  399  402 1
   303  402  403 1
   304  403  404 1
   305  404  406 1
   306  404  405 1
   307  405  410 1
   308  406  408 1
   309  406  407 1
   310  408  409 1
   311  408  410 1
   312  410  411 1
   313  411  412 am
   314  411  418 1
   315  412  414 1
   316  412  413 2
   317  414  415 2
   318  415  417 2
   319  415  416 2
   320  417  418 2
   321  373  399 1
   322  430  432 1
   323  430  433 1
   324  430  431 1
   325  433  434 1
   326  434  435 1
   327  435  436 1
   328  435  437 1
   329  436  441 1
   330  437  439 1
   331  437  438 1
   332  439  440 1
   333  439  441 1
   334  441  442 1
   335  442  443 ar
   336  442  451 ar
   337  443  444 ar
   338  444  445 ar
   339  445  446 ar
   340  445  451 ar
   341  446  448 ar
   342  446  447 1
   343  448  449 ar
   344  449  450 ar
   345  450  451 ar
   346  407  430 1
   347  463  464 1
   348  463  465 1
   349  463  466 1
   350  466  467 1
   351  467  468 1
   352  468  470 1
   353  468  469 1
   354  469  474 1
   355  470  472 1
   356  470  471 1
   357  472  474 1
   358  472  473 1
   359  474  475 1
   360  475  485 ar
   361  475  476 ar
   362  476  477 ar
   363  477  478 ar
   364  478  485 ar
   365  478  479 1
   366  479  480 2
   367  479  481 am
   368  481  482 1
   369  482  483 2
   370  482  484 2
   371  484  485 1
   372  438  463 1
   373  497  498 1
   374  497  499 1
   375  497  500 1
   376  500  501 1
   377  501  502 1
   378  502  504 1
   379  502  503 1
   380  503  508 1
   381  504  506 1
   382  504  505 1
   383  506  508 1
   384  506  507 1
   385  508  509 1
   386  509  519 ar
   387  509  510 ar
   388  510  511 ar
   389  511  512 ar
   390  512  519 ar
   391  512  513 1
   392  513  514 2
   393  513  515 am
   394  515  516 1
   395  516  517 2
   396  516  518 2
   397  518  519 1
   398  471  497 1
   399  531  532 1
   400  531  533 1
   401  531  534 1
   402  534  535 1
   403  535  536 1
   404  536  538 1
   405  536  537 1
   406  537  542 1
   407  538  540 1
   408  538  539 1
   409  540  542 1
   410  540  541 1
   411  542  543 1
   412  543  553 ar
   413  543  544 ar
   414  544  545 ar
   415  545  546 ar
   416  546  553 ar
   417  546  547 1
   418  547  548 2
   419  547  549 am
   420  549  550 1
   421  550  551 2
   422  550  552 2
   423  552  553 1
   424  505  531 1
   425  565  566 1
   426  565  567 1
   427  565  568 1
   428  568  569 1
   429  569  570 1
   430  570  571 1
   431  570  572 1
   432  571  576 1
   433  572  573 1
   434  572  574 1
   435  574  575 1
   436  574  576 1
   437  576  577 1
   438  577  584 1
   439  577  578 am
   440  578  580 am
   441  578  579 2
   442  580  581 am
   443  581  582 2
   444  581  583 1
   445  583  584 2
   446  539  565 1
   447  595  596 1
   448  595  597 1
   449  595  598 1
   450  598  599 1
   451  599  600 1
   452  600  602 1
   453  600  601 1
   454  601  606 1
   455  602  604 1
   456  602  603 1
   457  604  606 1
   458  604  605 1
   459  606  607 1
   460  607  617 ar
   461  607  608 ar
   462  608  609 ar
   463  609  610 ar
   464  610  617 ar
   465  610  611 1
   466  611  612 2
   467  611  613 am
   468  613  614 1
   469  614  615 2
   470  614  616 2
   471  616  617 1
   472  573  595 1
   473  629  631 1
   474  629  632 1
   475  629  630 1
   476  632  633 1
   477  633  634 1
   478  634  635 1
   479  634  636 1
   480  635  640 1
   481  636  638 1
   482  636  637 1
   483  638  639 1
   484  638  640 1
   485  640  641 1
   486  641  642 ar
   487  641  650 ar
   488  642  643 ar
   489  643  644 ar
   490  644  645 ar
   491  644  650 ar
   492  645  647 ar
   493  645  646 1
   494  647  648 ar
   495  648  649 ar
   496  649  650 ar
   497  603  629 1
   498  662  664 1
   499  662  665 1
   500  662  663 1
   501  665  666 1
   502  666  667 1
   503  667  668 1
   504  667  669 1
   505  668  673 1
   506  669  671 1
   507  669  670 1
   508  671  672 1
   509  671  673 1
   510  673  674 1
   511  674  675 ar
   512  674  683 ar
   513  675  676 ar
   514  676  677 ar
   515  677  678 ar
   516  677  683 ar
   517  678  680 ar
   518  678  679 1
   519  680  681 ar
   520  681  682 ar
   521  682  683 ar
   522  637  662 1
   523  695  697 1
   524  695  698 1
   525  695  696 1
   526  698  699 1
   527  699  700 1
   528  700  701 1
   529  700  702 1
   530  701  706 1
   531  702  704 1
   532  702  703 1
   533  704  705 1
   534  704  706 1
   535  706  707 1
   536  707  708 ar
   537  707  716 ar
   538  708  709 ar
   539  709  710 ar
   540  710  711 ar
   541  710  716 ar
   542  711  713 ar
   543  711  712 1
   544  713  714 ar
   545  714  715 ar
   546  715  716 ar
   547  670  695 1
   548  728  729 1
   549  728  730 1
   550  728  731 1
   551  731  732 1
   552  732  733 1
   553  733  734 1
   554  733  735 1
   555  734  739 1
   556  735  736 1
   557  735  737 1
   558  737  738 1
   559  737  739 1
   560  739  740 1
   561  740  747 1
   562  740  741 am
   563  741  743 am
   564  741  742 2
   565  743  744 am
   566  744  745 2
   567  744  746 1
   568  746  747 2
   569  703  728 1
   570  758  759 1
   571  758  760 1
   572  758  761 1
   573  761  762 1
   574  762  763 1
   575  763  764 1
   576  763  765 1
   577  764  769 1
   578  765  766 1
   579  765  767 1
   580  767  768 1
   581  767  769 1
   582  769  770 1
   583  770  777 1
   584  770  771 am
   585  771  773 am
   586  771  772 2
   587  773  774 am
   588  774  775 2
   589  774  776 1
   590  776  777 2
   591  736  758 1
   592  788  789 1
   593  788  790 1
   594  788  791 1
   595  791  792 1
   596  792  793 1
   597  793  795 1
   598  793  794 1
   599  794  799 1
   600  795  797 1
   601  795  796 1
   602  797  798 1
   603  797  799 1
   604  799  800 1
   605  800  801 am
   606  800  807 1
   607  801  803 1
   608  801  802 2
   609  803  804 2
   610  804  806 2
   611  804  805 2
   612  806  807 2
   613  766  788 1
   614  819  820 1
   615  819  821 1
   616  819  822 1
   617  822  823 1
   618  823  824 1
   619  824  826 1
   620  824  825 1
   621  825  830 1
   622  826  828 1
   623  826  827 1
   624  828  829 1
   625  828  830 1
   626  830  831 1
   627  831  832 am
   628  831  838 1
   629  832  834 1
   630  832  833 2
   631  834  835 2
   632  835  837 2
   633  835  836 2
   634  837  838 2
   635  796  819 1
   636  850  851 1
   637  850  852 1
   638  850  853 1
   639  853  854 1
   640  854  855 1
   641  855  857 1
   642  855  856 1
   643  856  861 1
   644  857  859 1
   645  857  858 1
   646  859  860 1
   647  859  861 1
   648  861  862 1
   649  862  863 am
   650  862  869 1
   651  863  865 1
   652  863  864 2
   653  865  866 2
   654  866  868 2
   655  866  867 2
   656  868  869 2
   657  827  850 1
   658  881  882 1
   659  881  883 1
   660  881  884 1
   661  884  885 1
   662  885  886 1
   663  886  888 1
   664  886  887 1
   665  887  892 1
   666  888  890 1
   667  888  889 1
   668  890  892 1
   669  890  891 1
   670  892  893 1
   671  893  903 ar
   672  893  894 ar
   673  894  895 ar
   674  895  896 ar
   675  896  903 ar
   676  896  897 1
   677  897  898 2
   678  897  899 am
   679  899  900 1
   680  900  901 2
   681  900  902 2
   682  902  903 1
   683  858  881 1
   684  915  917 1
   685  915  918 1
   686  915  916 1
   687  918  919 1
   688  919  920 1
   689  920  921 1
   690  920  922 1
   691  921  926 1
   692  922  924 1
   693  922  923 1
   694  924  925 1
   695  924  926 1
   696  926  927 1
   697  927  928 ar
   698  927  936 ar
   699  928  929 ar
   700  929  930 ar
   701  930  931 ar
   702  930  936 ar
   703  931  933 ar
   704  931  932 1
   705  933  934 ar
   706  934  935 ar
   707  935  936 ar
   708  889  915 1
   709  948  949 1
   710  948  950 1
   711  948  951 1
   712  951  952 1
   713  952  953 1
   714  953  955 1
   715  953  954 1
   716  954  959 1
   717  955  957 1
   718  955  956 1
   719  957  958 1
   720  957  959 1
   721  959  960 1
   722  960  961 am
   723  960  967 1
   724  961  963 1
   725  961  962 2
   726  963  964 2
   727  964  966 2
   728  964  965 2
   729  966  967 2
   730  923  948 1
   731  979  980 1
   732  979  981 1
   733  979  982 1
   734  982  983 1
   735  983  984 1
   736  984  986 1
   737  984  985 1
   738  985  990 1
   739  986  988 1
   740  986  987 1
   741  988  989 1
   742  988  990 1
   743  990  991 1
   744  991  992 am
   745  991  998 1
   746  992  994 1
   747  992  993 2
   748  994  995 2
   749  995  997 2
   750  995  996 2
   751  997  998 2
   752  956  979 1
   753 1010 1011 1
   754 1010 1012 1
   755 1010 1013 1
   756 1013 1014 1
   757 1014 1015 1
   758 1015 1017 1
   759 1015 1016 1
   760 1016 1021 1
   761 1017 1019 1
   762 1017 1018 1
   763 1019 1021 1
   764 1019 1020 1
   765 1021 1022 1
   766 1022 1032 ar
   767 1022 1023 ar
   768 1023 1024 ar
   769 1024 1025 ar
   770 1025 1032 ar
   771 1025 1026 1
   772 1026 1027 2
   773 1026 1028 am
   774 1028 1029 1
   775 1029 1030 2
   776 1029 1031 2
   777 1031 1032 1
   778  987 1010 1
   779 1044 1045 1
   780 1044 1046 1
   781 1044 1047 1
   782 1047 1048 1
   783 1048 1049 1
   784 1049 1051 1
   785 1049 1050 1
   786 1050 1055 1
   787 1051 1053 1
   788 1051 1052 1
   789 1053 1055 1
   790 1053 1054 1
   791 1055 1056 1
   792 1056 1066 ar
   793 1056 1057 ar
   794 1057 1058 ar
   795 1058 1059 ar
   796 1059 1066 ar
   797 1059 1060 1
   798 1060 1061 2
   799 1060 1062 am
   800 1062 1063 1
   801 1063 1064 2
   802 1063 1065 2
   803 1065 1066 1
   804 1018 1044 1
   805 1078 1079 1
   806 1078 1080 1
   807 1078 1081 1
   808 1081 1082 1
   809 1082 1083 1
   810 1083 1084 1
   811 1083 1085 1
   812 1084 1089 1
   813 1085 1086 1
   814 1085 1087 1
   815 1087 1088 1
   816 1087 1089 1
   817 1089 1090 1
   818 1090 1097 1
   819 1090 1091 am
   820 1091 1093 am
   821 1091 1092 2
   822 1093 1094 am
   823 1094 1095 2
   824 1094 1096 1
   825 1096 1097 2
   826 1052 1078 1
   827 1108 1109 1
   828 1108 1110 1
   829 1108 1111 1
   830 1111 1112 1
   831 1112 1113 1
   832 1113 1115 1
   833 1113 1114 1
   834 1114 1119 1
   835 1115 1117 1
   836 1115 1116 1
   837 1117 1119 1
   838 1117 1118 1
   839 1119 1120 1
   840 1120 1130 ar
   841 1120 1121 ar
   842 1121 1122 ar
   843 1122 1123 ar
   844 1123 1130 ar
   845 1123 1124 1
   846 1124 1125 2
   847 1124 1126 am
   848 1126 1127 1
   849 1127 1128 2
   850 1127 1129 2
   851 1129 1130 1
   852 1086 1108 1
   853 1142 1143 1
   854 1142 1144 1
   855 1142 1145 1
   856 1145 1146 1
   857 1146 1147 1
   858 1147 1149 1
   859 1147 1148 1
   860 1148 1153 1
   861 1149 1151 1
   862 1149 1150 1
   863 1151 1153 1
   864 1151 1152 1
   865 1153 1154 1
   866 1154 1164 ar
   867 1154 1155 ar
   868 1155 1156 ar
   869 1156 1157 ar
   870 1157 1164 ar
   871 1157 1158 1
   872 1158 1159 2
   873 1158 1160 am
   874 1160 1161 1
   875 1161 1162 2
   876 1161 1163 2
   877 1163 1164 1
   878 1116 1142 1
   879 1176 1177 1
   880 1176 1178 1
   881 1176 1179 1
   882 1179 1180 1
   883 1180 1181 1
   884 1181 1182 1
   885 1181 1183 1
   886 1182 1187 1
   887 1183 1184 1
   888 1183 1185 1
   889 1185 1186 1
   890 1185 1187 1
   891 1187 1188 1
   892 1188 1195 1
   893 1188 1189 am
   894 1189 1191 am
   895 1189 1190 2
   896 1191 1192 am
   897 1192 1193 2
   898 1192 1194 1
   899 1194 1195 2
   900 1150 1176 1
   901 1206 1208 1
   902 1206 1209 1
   903 1206 1207 1
   904 1209 1210 1
   905 1210 1211 1
   906 1211 1212 1
   907 1211 1213 1
   908 1212 1217 1
   909 1213 1215 1
   910 1213 1214 1
   911 1215 1216 1
   912 1215 1217 1
   913 1217 1218 1
   914 1218 1219 ar
   915 1218 1227 ar
   916 1219 1220 ar
   917 1220 1221 ar
   918 1221 1222 ar
   919 1221 1227 ar
   920 1222 1224 ar
   921 1222 1223 1
   922 1224 1225 ar
   923 1225 1226 ar
   924 1226 1227 ar
   925 1184 1206 1
   926 1239 1240 1
   927 1239 1241 1
   928 1239 1242 1
   929 1242 1243 1
   930 1243 1244 1
   931 1244 1245 1
   932 1244 1246 1
   933 1245 1250 1
   934 1246 1247 1
   935 1246 1248 1
   936 1248 1249 1
   937 1248 1250 1
   938 1250 1251 1
   939 1251 1258 1
   940 1251 1252 am
   941 1252 1254 am
   942 1252 1253 2
   943 1254 1255 am
   944 1255 1256 2
   945 1255 1257 1
   946 1257 1258 2
   947 1214 1239 1
   948 1269 1271 1
   949 1269 1272 1
   950 1269 1270 1
   951 1272 1273 1
   952 1273 1274 1
   953 1274 1275 1
   954 1274 1276 1
   955 1275 1280 1
   956 1276 1278 1
   957 1276 1277 1
   958 1278 1279 1
   959 1278 1280 1
   960 1280 1281 1
   961 1281 1282 ar
   962 1281 1290 ar
   963 1282 1283 ar
   964 1283 1284 ar
   965 1284 1285 ar
   966 1284 1290 ar
   967 1285 1287 ar
   968 1285 1286 1
   969 1287 1288 ar
   970 1288 1289 ar
   971 1289 1290 ar
   972 1247 1269 1
   973 1302 1303 1
   974 1302 1304 1
   975 1302 1305 1
   976 1305 1306 1
   977 1306 1307 1
   978 1307 1309 1
   979 1307 1308 1
   980 1308 1313 1
   981 1309 1311 1
   982 1309 1310 1
   983 1311 1313 1
   984 1311 1312 1
   985 1313 1314 1
   986 1314 1324 ar
   987 1314 1315 ar
   988 1315 1316 ar
   989 1316 1317 ar
   990 1317 1324 ar
   991 1317 1318 1
   992 1318 1319 2
   993 1318 1320 am
   994 1320 1321 1
   995 1321 1322 2
   996 1321 1323 2
   997 1323 1324 1
   998 1277 1302 1
   999 1336 1337 1
  1000 1336 1338 1
  1001 1336 1339 1
  1002 1339 1340 1
  1003 1340 1341 1
  1004 1341 1342 1
  1005 1341 1343 1
  1006 1342 1347 1
  1007 1343 1344 1
  1008 1343 1345 1
  1009 1345 1346 1
  1010 1345 1347 1
  1011 1347 1348 1
  1012 1348 1355 1
  1013 1348 1349 am
  1014 1349 1351 am
  1015 1349 1350 2
  1016 1351 1352 am
  1017 1352 1353 2
  1018 1352 1354 1
  1019 1354 1355 2
  1020 1310 1336 1
  1021 1366 1367 1
  1022 1366 1368 1
  1023 1366 1369 1
  1024 1369 1370 1
  1025 1370 1371 1
  1026 1371 1373 1
  1027 1371 1372 1
  1028 1372 1377 1
  1029 1373 1375 1
  1030 1373 1374 1
  1031 1375 1376 1
  1032 1375 1377 1
  1033 1377 1378 1
  1034 1378 1379 am
  1035 1378 1385 1
  1036 1379 1381 1
  1037 1379 1380 2
  1038 1381 1382 2
  1039 1382 1384 2
  1040 1382 1383 2
  1041 1384 1385 2
  1042 1344 1366 1
  1043 1397 1398 1
  1044 1397 1399 1
  1045 1397 1400 1
  1046 1400 1401 1
  1047 1401 1402 1
  1048 1402 1404 1
  1049 1402 1403 1
  1050 1403 1408 1
  1051 1404 1406 1
  1052 1404 1405 1
  1053 1406 1407 1
  1054 1406 1408 1
  1055 1408 1409 1
  1056 1409 1410 am
  1057 1409 1416 1
  1058 1410 1412 1
  1059 1410 1411 2
  1060 1412 1413 2
  1061 1413 1415 2
  1062 1413 1414 2
  1063 1415 1416 2
  1064 1374 1397 1
  1065 1428 1430 1
  1066 1428 1431 1
  1067 1428 1429 1
  1068 1431 1432 1
  1069 1432 1433 1
  1070 1433 1434 1
  1071 1433 1435 1
  1072 1434 1439 1
  1073 1435 1437 1
  1074 1435 1436 1
  1075 1437 1438 1
  1076 1437 1439 1
  1077 1439 1440 1
  1078 1440 1441 ar
  1079 1440 1449 ar
  1080 1441 1442 ar
  1081 1442 1443 ar
  1082 1443 1444 ar
  1083 1443 1449 ar
  1084 1444 1446 ar
  1085 1444 1445 1
  1086 1446 1447 ar
  1087 1447 1448 ar
  1088 1448 1449 ar
  1089 1405 1428 1
  1090 1461 1462 1
  1091 1461 1463 1
  1092 1461 1464 1
  1093 1464 1465 1
  1094 1465 1466 1
  1095 1466 1468 1
  1096 1466 1467 1
  1097 1467 1472 1
  1098 1468 1470 1
  1099 1468 1469 1
  1100 1470 1471 1
  1101 1470 1472 1
  1102 1472 1473 1
  1103 1473 1474 am
  1104 1473 1480 1
  1105 1474 1476 1
  1106 1474 1475 2
  1107 1476 1477 2
  1108 1477 1479 2
  1109 1477 1478 2
  1110 1479 1480 2
  1111 1436 1461 1
  1112 1492 1493 1
  1113 1492 1494 1
  1114 1492 1495 1
  1115 1495 1496 1
  1116 1496 1497 1
  1117 1497 1499 1
  1118 1497 1498 1
  1119 1498 1503 1
  1120 1499 1501 1
  1121 1499 1500 1
  1122 1501 1503 1
  1123 1501 1502 1
  1124 1503 1504 1
  1125 1504 1514 ar
  1126 1504 1505 ar
  1127 1505 1506 ar
  1128 1506 1507 ar
  1129 1507 1514 ar
  1130 1507 1508 1
  1131 1508 1509 2
  1132 1508 1510 am
  1133 1510 1511 1
  1134 1511 1512 2
  1135 1511 1513 2
  1136 1513 1514 1
  1137 1469 1492 1
  1138 1526 1528 1
  1139 1526 1529 1
  1140 1526 1527 1
  1141 1529 1530 1
  1142 1530 1531 1
  1143 1531 1532 1
  1144 1531 1533 1
  1145 1532 1537 1
  1146 1533 1535 1
  1147 1533 1534 1
  1148 1535 1536 1
  1149 1535 1537 1
  1150 1537 1538 1
  1151 1538 1539 ar
  1152 1538 1547 ar
  1153 1539 1540 ar
  1154 1540 1541 ar
  1155 1541 1542 ar
  1156 1541 1547 ar
  1157 1542 1544 ar
  1158 1542 1543 1
  1159 1544 1545 ar
  1160 1545 1546 ar
  1161 1546 1547 ar
  1162 1500 1526 1
  1163 1559 1561 1
  1164 1559 1562 1
  1165 1559 1560 1
  1166 1562 1563 1
  1167 1563 1564 1
  1168 1564 1565 1
  1169 1564 1566 1
  1170 1565 1570 1
  1171 1566 1568 1
  1172 1566 1567 1
  1173 1568 1569 1
  1174 1568 1570 1
  1175 1570 1571 1
  1176 1571 1572 ar
  1177 1571 1580 ar
  1178 1572 1573 ar
  1179 1573 1574 ar
  1180 1574 1575 ar
  1181 1574 1580 ar
  1182 1575 1577 ar
  1183 1575 1576 1
  1184 1577 1578 ar
  1185 1578 1579 ar
  1186 1579 1580 ar
  1187 1534 1559 1
  1188 1592 1594 1
  1189 1592 1595 1
  1190 1592 1593 1
  1191 1595 1596 1
  1192 1596 1597 1
  1193 1597 1598 1
  1194 1597 1599 1
  1195 1598 1603 1
  1196 1599 1601 1
  1197 1599 1600 1
  1198 1601 1602 1
  1199 1601 1603 1
  1200 1603 1604 1
  1201 1604 1605 ar
  1202 1604 1613 ar
  1203 1605 1606 ar
  1204 1606 1607 ar
  1205 1607 1608 ar
  1206 1607 1613 ar
  1207 1608 1610 ar
  1208 1608 1609 1
  1209 1610 1611 ar
  1210 1611 1612 ar
  1211 1612 1613 ar
  1212 1567 1592 1
  1213 1625 1626 1
  1214 1625 1627 1
  1215 1625 1628 1
  1216 1628 1629 1
  1217 1629 1630 1
  1218 1630 1632 1
  1219 1630 1631 1
  1220 1631 1636 1
  1221 1632 1634 1
  1222 1632 1633 1
  1223 1634 1636 1
  1224 1634 1635 1
  1225 1636 1637 1
  1226 1637 1647 ar
  1227 1637 1638 ar
  1228 1638 1639 ar
  1229 1639 1640 ar
  1230 1640 1647 ar
  1231 1640 1641 1
  1232 1641 1642 2
  1233 1641 1643 am
  1234 1643 1644 1
  1235 1644 1645 2
  1236 1644 1646 2
  1237 1646 1647 1
  1238 1600 1625 1
  1239 1659 1660 1
  1240 1659 1661 1
  1241 1659 1662 1
  1242 1662 1663 1
  1243 1663 1664 1
  1244 1664 1665 1
  1245 1664 1666 1
  1246 1665 1670 1
  1247 1666 1667 1
  1248 1666 1668 1
  1249 1668 1669 1
  1250 1668 1670 1
  1251 1670 1671 1
  1252 1671 1678 1
  1253 1671 1672 am
  1254 1672 1674 am
  1255 1672 1673 2
  1256 1674 1675 am
  1257 1675 1676 2
  1258 1675 1677 1
  1259 1677 1678 2
  1260 1633 1659 1
  1261 1689 1691 1
  1262 1689 1692 1
  1263 1689 1690 1
  1264 1692 1693 1
  1265 1693 1694 1
  1266 1694 1695 1
  1267 1694 1696 1
  1268 1695 1700 1
  1269 1696 1698 1
  1270 1696 1697 1
  1271 1698 1699 1
  1272 1698 1700 1
  1273 1667 1689 1
  1274 1709 1710 1
  1275 1709 1711 1
  1276 1709 1712 1
  1277 1712 1713 1
  1278 1713 1714 1
  1279 1714 1716 1
  1280 1714 1715 1
  1281 1715 1720 1
  1282 1716 1718 1
  1283 1716 1717 1
  1284 1718 1720 1
  1285 1718 1719 1
  1286 1720 1721 1
  1287 1721 1731 ar
  1288 1721 1722 ar
  1289 1722 1723 ar
  1290 1723 1724 ar
  1291 1724 1731 ar
  1292 1724 1725 1
  1293 1725 1726 2
  1294 1725 1727 am
  1295 1727 1728 1
  1296 1728 1729 2
  1297 1728 1730 2
  1298 1730 1731 1
  1299 1697 1709 1
  1300 1743 1744 1
  1301 1743 1745 1
  1302 1743 1746 1
  1303 1746 1747 1
  1304 1747 1748 1
  1305 1748 1750 1
  1306 1748 1749 1
  1307 1749 1754 1
  1308 1750 1752 1
  1309 1750 1751 1
  1310 1752 1753 1
  1311 1752 1754 1
  1312 1754 1755 1
  1313 1755 1756 am
  1314 1755 1762 1
  1315 1756 1758 1
  1316 1756 1757 2
  1317 1758 1759 2
  1318 1759 1761 2
  1319 1759 1760 2
  1320 1761 1762 2
  1321 1717 1743 1
  1322 1774 1775 1
  1323 1774 1776 1
  1324 1774 1777 1
  1325 1777 1778 1
  1326 1778 1779 1
  1327 1779 1780 1
  1328 1779 1781 1
  1329 1780 1785 1
  1330 1781 1782 1
  1331 1781 1783 1
  1332 1783 1784 1
  1333 1783 1785 1
  1334 1785 1786 1
  1335 1786 1793 1
  1336 1786 1787 am
  1337 1787 1789 am
  1338 1787 1788 2
  1339 1789 1790 am
  1340 1790 1791 2
  1341 1790 1792 1
  1342 1792 1793 2
  1343 1751 1774 1
  1344 1804 1805 1
  1345 1804 1806 1
  1346 1804 1807 1
  1347 1807 1808 1
  1348 1808 1809 1
  1349 1809 1810 1
  1350 1809 1811 1
  1351 1810 1815 1
  1352 1811 1812 1
  1353 1811 1813 1
  1354 1813 1814 1
  1355 1813 1815 1
  1356 1815 1816 1
  1357 1816 1823 1
  1358 1816 1817 am
  1359 1817 1819 am
  1360 1817 1818 2
  1361 1819 1820 am
  1362 1820 1821 2
  1363 1820 1822 1
  1364 1822 1823 2
  1365 1782 1804 1
  1366 1834 1835 1
  1367 1834 1836 1
  1368 1834 1837 1
  1369 1837 1838 1
  1370 1838 1839 1
  1371 1839 1840 1
  1372 1839 1841 1
  1373 1840 1845 1
  1374 1841 1842 1
  1375 1841 1843 1
  1376 1843 1844 1
  1377 1843 1845 1
  1378 1845 1846 1
  1379 1846 1853 1
  1380 1846 1847 am
  1381 1847 1849 am
  1382 1847 1848 2
  1383 1849 1850 am
  1384 1850 1851 2
  1385 1850 1852 1
  1386 1852 1853 2
  1387 1812 1834 1
  1388 1864 1865 1
  1389 1864 1866 1
  1390 1864 1867 1
  1391 1867 1868 1
  1392 1868 1869 1
  1393 1869 1871 1
  1394 1869 1870 1
  1395 1870 1875 1
  1396 1871 1873 1
  1397 1871 1872 1
  1398 1873 1875 1
  1399 1873 1874 1
  1400 1875 1876 1
  1401 1876 1886 ar
  1402 1876 1877 ar
  1403 1877 1878 ar
  1404 1878 1879 ar
  1405 1879 1886 ar
  1406 1879 1880 1
  1407 1880 1881 2
  1408 1880 1882 am
  1409 1882 1883 1
  1410 1883 1884 2
  1411 1883 1885 2
  1412 1885 1886 1
  1413 1842 1864 1
  1414 1898 1900 1
  1415 1898 1901 1
  1416 1898 1899 1
  1417 1901 1902 1
  1418 1902 1903 1
  1419 1903 1904 1
  1420 1903 1905 1
  1421 1904 1909 1
  1422 1905 1907 1
  1423 1905 1906 1
  1424 1907 1908 1
  1425 1907 1909 1
  1426 1909 1910 1
  1427 1910 1911 ar
  1428 1910 1919 ar
  1429 1911 1912 ar
  1430 1912 1913 ar
  1431 1913 1914 ar
  1432 1913 1919 ar
  1433 1914 1916 ar
  1434 1914 1915 1
  1435 1916 1917 ar
  1436 1917 1918 ar
  1437 1918 1919 ar
  1438 1872 1898 1
  1439 1931 1932 1
  1440 1931 1933 1
  1441 1931 1934 1
  1442 1934 1935 1
  1443 1935 1936 1
  1444 1936 1937 1
  1445 1936 1938 1
  1446 1937 1942 1
  1447 1938 1939 1
  1448 1938 1940 1
  1449 1940 1941 1
  1450 1940 1942 1
  1451 1942 1943 1
  1452 1943 1950 1
  1453 1943 1944 am
  1454 1944 1946 am
  1455 1944 1945 2
  1456 1946 1947 am
  1457 1947 1948 2
  1458 1947 1949 1
  1459 1949 1950 2
  1460 1906 1931 1
  1461 1961 1962 1
  1462 1961 1963 1
  1463 1961 1964 1
  1464 1964 1965 1
  1465 1965 1966 1
  1466 1966 1967 1
  1467 1966 1968 1
  1468 1967 1972 1
  1469 1968 1969 1
  1470 1968 1970 1
  1471 1970 1971 1
  1472 1970 1972 1
  1473 1972 1973 1
  1474 1973 1980 1
  1475 1973 1974 am
  1476 1974 1976 am
  1477 1974 1975 2
  1478 1976 1977 am
  1479 1977 1978 2
  1480 1977 1979 1
  1481 1979 1980 2
  1482 1939 1961 1
  1483 1991 1992 1
  1484 1991 1993 1
  1485 1991 1994 1
  1486 1994 1995 1
  1487 1995 1996 1
  1488 1996 1997 1
  1489 1996 1998 1
  1490 1997 2002 1
  1491 1998 1999 1
  1492 1998 2000 1
  1493 2000 2001 1
  1494 2000 2002 1
  1495 2002 2003 1
  1496 2003 2010 1
  1497 2003 2004 am
  1498 2004 2006 am
  1499 2004 2005 2
  1500 2006 2007 am
  1501 2007 2008 2
  1502 2007 2009 1
  1503 2009 2010 2
  1504 1969 1991 1
  1505 2021 2022 1
  1506 2021 2023 1
  1507 2021 2024 1
  1508 2024 2025 1
  1509 2025 2026 1
  1510 2026 2028 1
  1511 2026 2027 1
  1512 2027 2032 1
  1513 2028 2030 1
  1514 2028 2029 1
  1515 2030 2032 1
  1516 2030 2031 1
  1517 2032 2033 1
  1518 2033 2043 ar
  1519 2033 2034 ar
  1520 2034 2035 ar
  1521 2035 2036 ar
  1522 2036 2043 ar
  1523 2036 2037 1
  1524 2037 2038 2
  1525 2037 2039 am
  1526 2039 2040 1
  1527 2040 2041 2
  1528 2040 2042 2
  1529 2042 2043 1
  1530 1999 2021 1
  1531 2055 2056 1
  1532 2055 2057 1
  1533 2055 2058 1
  1534 2058 2059 1
  1535 2059 2060 1
  1536 2060 2062 1
  1537 2060 2061 1
  1538 2061 2066 1
  1539 2062 2064 1
  1540 2062 2063 1
  1541 2064 2066 1
  1542 2064 2065 1
  1543 2066 2067 1
  1544 2067 2077 ar
  1545 2067 2068 ar
  1546 2068 2069 ar
  1547 2069 2070 ar
  1548 2070 2077 ar
  1549 2070 2071 1
  1550 2071 2072 2
  1551 2071 2073 am
  1552 2073 2074 1
  1553 2074 2075 2
  1554 2074 2076 2
  1555 2076 2077 1
  1556 2029 2055 1
  1557 2089 2090 1
  1558 2089 2091 1
  1559 2089 2092 1
  1560 2092 2093 1
  1561 2093 2094 1
  1562 2094 2095 1
  1563 2094 2096 1
  1564 2095 2100 1
  1565 2096 2097 1
  1566 2096 2098 1
  1567 2098 2099 1
  1568 2098 2100 1
  1569 2100 2101 1
  1570 2101 2108 1
  1571 2101 2102 am
  1572 2102 2104 am
  1573 2102 2103 2
  1574 2104 2105 am
  1575 2105 2106 2
  1576 2105 2107 1
  1577 2107 2108 2
  1578 2063 2089 1
  1579 2119 2120 1
  1580 2119 2121 1
  1581 2119 2122 1
  1582 2122 2123 1
  1583 2123 2124 1
  1584 2124 2126 1
  1585 2124 2125 1
  1586 2125 2130 1
  1587 2126 2128 1
  1588 2126 2127 1
  1589 2128 2130 1
  1590 2128 2129 1
  1591 2130 2131 1
  1592 2131 2141 ar
  1593 2131 2132 ar
  1594 2132 2133 ar
  1595 2133 2134 ar
  1596 2134 2141 ar
  1597 2134 2135 1
  1598 2135 2136 2
  1599 2135 2137 am
  1600 2137 2138 1
  1601 2138 2139 2
  1602 2138 2140 2
  1603 2140 2141 1
  1604 2097 2119 1
  1605 2153 2155 1
  1606 2153 2156 1
  1607 2153 2154 1
  1608 2156 2157 1
  1609 2157 2158 1
  1610 2158 2159 1
  1611 2158 2160 1
  1612 2159 2164 1
  1613 2160 2162 1
  1614 2160 2161 1
  1615 2162 2163 1
  1616 2162 2164 1
  1617 2164 2165 1
  1618 2165 2166 ar
  1619 2165 2174 ar
  1620 2166 2167 ar
  1621 2167 2168 ar
  1622 2168 2169 ar
  1623 2168 2174 ar
  1624 2169 2171 ar
  1625 2169 2170 1
  1626 2171 2172 ar
  1627 2172 2173 ar
  1628 2173 2174 ar
  1629 2127 2153 1
  1630 2186 2188 1
  1631 2186 2189 1
  1632 2186 2187 1
  1633 2189 2190 1
  1634 2190 2191 1
  1635 2191 2192 1
  1636 2191 2193 1
  1637 2192 2197 1
  1638 2193 2195 1
  1639 2193 2194 1
  1640 2195 2196 1
  1641 2195 2197 1
  1642 2197 2198 1
  1643 2198 2199 ar
  1644 2198 2207 ar
  1645 2199 2200 ar
  1646 2200 2201 ar
  1647 2201 2202 ar
  1648 2201 2207 ar
  1649 2202 2204 ar
  1650 2202 2203 1
  1651 2204 2205 ar
  1652 2205 2206 ar
  1653 2206 2207 ar
  1654 2161 2186 1
  1655 2219 2221 1
  1656 2219 2222 1
  1657 2219 2220 1
  1658 2222 2223 1
  1659 2223 2224 1
  1660 2224 2225 1
  1661 2224 2226 1
  1662 2225 2230 1
  1663 2226 2228 1
  1664 2226 2227 1
  1665 2228 2229 1
  1666 2228 2230 1
  1667 2230 2231 1
  1668 2231 2232 ar
  1669 2231 2240 ar
  1670 2232 2233 ar
  1671 2233 2234 ar
  1672 2234 2235 ar
  1673 2234 2240 ar
  1674 2235 2237 ar
  1675 2235 2236 1
  1676 2237 2238 ar
  1677 2238 2239 ar
  1678 2239 2240 ar
  1679 2194 2219 1
  1680 2252 2253 1
  1681 2252 2254 1
  1682 2252 2255 1
  1683 2255 2256 1
  1684 2256 2257 1
  1685 2257 2258 1
  1686 2257 2259 1
  1687 2258 2263 1
  1688 2259 2260 1
  1689 2259 2261 1
  1690 2261 2262 1
  1691 2261 2263 1
  1692 2263 2264 1
  1693 2264 2271 1
  1694 2264 2265 am
  1695 2265 2267 am
  1696 2265 2266 2
  1697 2267 2268 am
  1698 2268 2269 2
  1699 2268 2270 1
  1700 2270 2271 2
  1701 2227 2252 1
  1702 2282 2283 1
  1703 2282 2284 1
  1704 2282 2285 1
  1705 2285 2286 1
  1706 2286 2287 1
  1707 2287 2288 1
  1708 2287 2289 1
  1709 2288 2293 1
  1710 2289 2290 1
  1711 2289 2291 1
  1712 2291 2292 1
  1713 2291 2293 1
  1714 2293 2294 1
  1715 2294 2301 1
  1716 2294 2295 am
  1717 2295 2297 am
  1718 2295 2296 2
  1719 2297 2298 am
  1720 2298 2299 2
  1721 2298 2300 1
  1722 2300 2301 2
  1723 2260 2282 1
  1724 2312 2313 1
  1725 2312 2314 1
  1726 2312 2315 1
  1727 2315 2316 1
  1728 2316 2317 1
  1729 2317 2319 1
  1730 2317 2318 1
  1731 2318 2323 1
  1732 2319 2321 1
  1733 2319 2320 1
  1734 2321 2322 1
  1735 2321 2323 1
  1736 2323 2324 1
  1737 2324 2325 am
  1738 2324 2331 1
  1739 2325 2327 1
  1740 2325 2326 2
  1741 2327 2328 2
  1742 2328 2330 2
  1743 2328 2329 2
  1744 2330 2331 2
  1745 2290 2312 1
  1746 2343 2344 1
  1747 2343 2345 1
  1748 2343 2346 1
  1749 2346 2347 1
  1750 2347 2348 1
  1751 2348 2350 1
  1752 2348 2349 1
  1753 2349 2354 1
  1754 2350 2352 1
  1755 2350 2351 1
  1756 2352 2353 1
  1757 2352 2354 1
  1758 2354 2355 1
  1759 2355 2356 am
  1760 2355 2362 1
  1761 2356 2358 1
  1762 2356 2357 2
  1763 2358 2359 2
  1764 2359 2361 2
  1765 2359 2360 2
  1766 2361 2362 2
  1767 2320 2343 1
  1768 2374 2376 1
  1769 2374 2377 1
  1770 2374 2375 1
  1771 2377 2378 1
  1772 2378 2379 1
  1773 2379 2380 1
  1774 2379 2381 1
  1775 2380 2385 1
  1776 2381 2383 1
  1777 2381 2382 1
  1778 2383 2384 1
  1779 2383 2385 1
  1780 2385 2386 1
  1781 2386 2387 ar
  1782 2386 2395 ar
  1783 2387 2388 ar
  1784 2388 2389 ar
  1785 2389 2390 ar
  1786 2389 2395 ar
  1787 2390 2392 ar
  1788 2390 2391 1
  1789 2392 2393 ar
  1790 2393 2394 ar
  1791 2394 2395 ar
  1792 2351 2374 1
  1793 2407 2409 1
  1794 2407 2410 1
  1795 2407 2408 1
  1796 2410 2411 1
  1797 2411 2412 1
  1798 2412 2413 1
  1799 2412 2414 1
  1800 2413 2418 1
  1801 2414 2416 1
  1802 2414 2415 1
  1803 2416 2417 1
  1804 2416 2418 1
  1805 2418 2419 1
  1806 2419 2420 ar
  1807 2419 2428 ar
  1808 2420 2421 ar
  1809 2421 2422 ar
  1810 2422 2423 ar
  1811 2422 2428 ar
  1812 2423 2425 ar
  1813 2423 2424 1
  1814 2425 2426 ar
  1815 2426 2427 ar
  1816 2427 2428 ar
  1817 2382 2407 1
  1818 2440 2442 1
  1819 2440 2443 1
  1820 2440 2441 1
  1821 2443 2444 1
  1822 2444 2445 1
  1823 2445 2446 1
  1824 2445 2447 1
  1825 2446 2451 1
  1826 2447 2449 1
  1827 2447 2448 1
  1828 2449 2450 1
  1829 2449 2451 1
  1830 2451 2452 1
  1831 2452 2453 ar
  1832 2452 2461 ar
  1833 2453 2454 ar
  1834 2454 2455 ar
  1835 2455 2456 ar
  1836 2455 2461 ar
  1837 2456 2458 ar
  1838 2456 2457 1
  1839 2458 2459 ar
  1840 2459 2460 ar
  1841 2460 2461 ar
  1842 2415 2440 1
  1843 2473 2475 1
  1844 2473 2476 1
  1845 2473 2474 1
  1846 2476 2477 1
  1847 2477 2478 1
  1848 2478 2479 1
  1849 2478 2480 1
  1850 2479 2484 1
  1851 2480 2482 1
  1852 2480 2481 1
  1853 2482 2483 1
  1854 2482 2484 1
  1855 2484 2485 1
  1856 2485 2486 ar
  1857 2485 2494 ar
  1858 2486 2487 ar
  1859 2487 2488 ar
  1860 2488 2489 ar
  1861 2488 2494 ar
  1862 2489 2491 ar
  1863 2489 2490 1
  1864 2491 2492 ar
  1865 2492 2493 ar
  1866 2493 2494 ar
  1867 2448 2473 1
  1868 2506 2507 1
  1869 2506 2508 1
  1870 2506 2509 1
  1871 2509 2510 1
  1872 2510 2511 1
  1873 2511 2513 1
  1874 2511 2512 1
  1875 2512 2517 1
  1876 2513 2515 1
  1877 2513 2514 1
  1878 2515 2516 1
  1879 2515 2517 1
  1880 2517 2518 1
  1881 2518 2519 am
  1882 2518 2525 1
  1883 2519 2521 1
  1884 2519 2520 2
  1885 2521 2522 2
  1886 2522 2524 2
  1887 2522 2523 2
  1888 2524 2525 2
  1889 2481 2506 1
  1890 2537 2538 1
  1891 2537 2539 1
  1892 2537 2540 1
  1893 2540 2541 1
  1894 2541 2542 1
  1895 2542 2544 1
  1896 2542 2543 1
  1897 2543 2548 1
  1898 2544 2546 1
  1899 2544 2545 1
  1900 2546 2547 1
  1901 2546 2548 1
  1902 2548 2549 1
  1903 2549 2550 am
  1904 2549 2556 1
  1905 2550 2552 1
  1906 2550 2551 2
  1907 2552 2553 2
  1908 2553 2555 2
  1909 2553 2554 2
  1910 2555 2556 2
  1911 2514 2537 1
  1912 2568 2569 1
  1913 2568 2570 1
  1914 2568 2571 1
  1915 2571 2572 1
  1916 2572 2573 1
  1917 2573 2575 1
  1918 2573 2574 1
  1919 2574 2579 1
  1920 2575 2577 1
  1921 2575 2576 1
  1922 2577 2579 1
  1923 2577 2578 1
  1924 2579 2580 1
  1925 2580 2590 ar
  1926 2580 2581 ar
  1927 2581 2582 ar
  1928 2582 2583 ar
  1929 2583 2590 ar
  1930 2583 2584 1
  1931 2584 2585 2
  1932 2584 2586 am
  1933 2586 2587 1
  1934 2587 2588 2
  1935 2587 2589 2
  1936 2589 2590 1
  1937 2545 2568 1
  1938 2602 2604 1
  1939 2602 2605 1
  1940 2602 2603 1
  1941 2605 2606 1
  1942 2606 2607 1
  1943 2607 2608 1
  1944 2607 2609 1
  1945 2608 2613 1
  1946 2609 2611 1
  1947 2609 2610 1
  1948 2611 2612 1
  1949 2611 2613 1
  1950 2613 2614 1
  1951 2614 2615 ar
  1952 2614 2623 ar
  1953 2615 2616 ar
  1954 2616 2617 ar
  1955 2617 2618 ar
  1956 2617 2623 ar
  1957 2618 2620 ar
  1958 2618 2619 1
  1959 2620 2621 ar
  1960 2621 2622 ar
  1961 2622 2623 ar
  1962 2576 2602 1
  1963 2635 2636 1
  1964 2635 2637 1
  1965 2635 2638 1
  1966 2638 2639 1
  1967 2639 2640 1
  1968 2640 2642 1
  1969 2640 2641 1
  1970 2641 2646 1
  1971 2642 2644 1
  1972 2642 2643 1
  1973 2644 2645 1
  1974 2644 2646 1
  1975 2646 2647 1
  1976 2647 2648 am
  1977 2647 2654 1
  1978 2648 2650 1
  1979 2648 2649 2
  1980 2650 2651 2
  1981 2651 2653 2
  1982 2651 2652 2
  1983 2653 2654 2
  1984 2610 2635 1
  1985 2666 2668 1
  1986 2666 2669 1
  1987 2666 2667 1
  1988 2669 2670 1
  1989 2670 2671 1
  1990 2671 2672 1
  1991 2671 2673 1
  1992 2672 2677 1
  1993 2673 2675 1
  1994 2673 2674 1
  1995 2675 2676 1
  1996 2675 2677 1
  1997 2677 2678 1
  1998 2678 2679 ar
  1999 2678 2687 ar
  2000 2679 2680 ar
  2001 2680 2681 ar
  2002 2681 2682 ar
  2003 2681 2687 ar
  2004 2682 2684 ar
  2005 2682 2683 1
  2006 2684 2685 ar
  2007 2685 2686 ar
  2008 2686 2687 ar
  2009 2643 2666 1
  2010 2699 2700 1
  2011 2699 2701 1
  2012 2699 2702 1
  2013 2702 2703 1
  2014 2703 2704 1
  2015 2704 2706 1
  2016 2704 2705 1
  2017 2705 2710 1
  2018 2706 2708 1
  2019 2706 2707 1
  2020 2708 2710 1
  2021 2708 2709 1
  2022 2710 2711 1
  2023 2711 2721 ar
  2024 2711 2712 ar
  2025 2712 2713 ar
  2026 2713 2714 ar
  2027 2714 2721 ar
  2028 2714 2715 1
  2029 2715 2716 2
  2030 2715 2717 am
  2031 2717 2718 1
  2032 2718 2719 2
  2033 2718 2720 2
  2034 2720 2721 1
  2035 2674 2699 1
  2036 2733 2734 1
  2037 2733 2735 1
  2038 2733 2736 1
  2039 2736 2737 1
  2040 2737 2738 1
  2041 2738 2739 1
  2042 2738 2740 1
  2043 2739 2744 1
  2044 2740 2741 1
  2045 2740 2742 1
  2046 2742 2743 1
  2047 2742 2744 1
  2048 2744 2745 1
  2049 2745 2752 1
  2050 2745 2746 am
  2051 2746 2748 am
  2052 2746 2747 2
  2053 2748 2749 am
  2054 2749 2750 2
  2055 2749 2751 1
  2056 2751 2752 2
  2057 2707 2733 1
  2058 2763 2765 1
  2059 2763 2766 1
  2060 2763 2764 1
  2061 2766 2767 1
  2062 2767 2768 1
  2063 2768 2769 1
  2064 2768 2770 1
  2065 2769 2774 1
  2066 2770 2772 1
  2067 2770 2771 1
  2068 2772 2773 1
  2069 2772 2774 1
  2070 2774 2775 1
  2071 2775 2776 ar
  2072 2775 2784 ar
  2073 2776 2777 ar
  2074 2777 2778 ar
  2075 2778 2779 ar
  2076 2778 2784 ar
  2077 2779 2781 ar
  2078 2779 2780 1
  2079 2781 2782 ar
  2080 2782 2783 ar
  2081 2783 2784 ar
  2082 2741 2763 1
  2083 2796 2797 1
  2084 2796 2798 1
  2085 2796 2799 1
  2086 2799 2800 1
  2087 2800 2801 1
  2088 2801 2803 1
  2089 2801 2802 1
  2090 2802 2807 1
  2091 2803 2805 1
  2092 2803 2804 1
  2093 2805 2807 1
  2094 2805 2806 1
  2095 2807 2808 1
  2096 2808 2818 ar
  2097 2808 2809 ar
  2098 2809 2810 ar
  2099 2810 2811 ar
  2100 2811 2818 ar
  2101 2811 2812 1
  2102 2812 2813 2
  2103 2812 2814 am
  2104 2814 2815 1
  2105 2815 2816 2
  2106 2815 2817 2
  2107 2817 2818 1
  2108 2771 2796 1
  2109 2830 2832 1
  2110 2830 2833 1
  2111 2830 2831 1
  2112 2833 2834 1
  2113 2834 2835 1
  2114 2835 2836 1
  2115 2835 2837 1
  2116 2836 2841 1
  2117 2837 2839 1
  2118 2837 2838 1
  2119 2839 2840 1
  2120 2839 2841 1
  2121 2841 2842 1
  2122 2842 2843 ar
  2123 2842 2851 ar
  2124 2843 2844 ar
  2125 2844 2845 ar
  2126 2845 2846 ar
  2127 2845 2851 ar
  2128 2846 2848 ar
  2129 2846 2847 1
  2130 2848 2849 ar
  2131 2849 2850 ar
  2132 2850 2851 ar
  2133 2804 2830 1
  2134 2863 2864 1
  2135 2863 2865 1
  2136 2863 2866 1
  2137 2866 2867 1
  2138 2867 2868 1
  2139 2868 2870 1
  2140 2868 2869 1
  2141 2869 2874 1
  2142 2870 2872 1
  2143 2870 2871 1
  2144 2872 2874 1
  2145 2872 2873 1
  2146 2874 2875 1
  2147 2875 2885 ar
  2148 2875 2876 ar
  2149 2876 2877 ar
  2150 2877 2878 ar
  2151 2878 2885 ar
  2152 2878 2879 1
  2153 2879 2880 2
  2154 2879 2881 am
  2155 2881 2882 1
  2156 2882 2883 2
  2157 2882 2884 2
  2158 2884 2885 1
  2159 2838 2863 1
  2160 2897 2898 1
  2161 2897 2899 1
  2162 2897 2900 1
  2163 2900 2901 1
  2164 2901 2902 1
  2165 2902 2903 1
  2166 2902 2904 1
  2167 2903 2908 1
  2168 2904 2905 1
  2169 2904 2906 1
  2170 2906 2907 1
  2171 2906 2908 1
  2172 2908 2909 1
  2173 2909 2916 1
  2174 2909 2910 am
  2175 2910 2912 am
  2176 2910 2911 2
  2177 2912 2913 am
  2178 2913 2914 2
  2179 2913 2915 1
  2180 2915 2916 2
  2181 2871 2897 1
  2182 2927 2928 1
  2183 2927 2929 1
  2184 2927 2930 1
  2185 2930 2931 1
  2186 2931 2932 1
  2187 2932 2934 1
  2188 2932 2933 1
  2189 2933 2938 1
  2190 2934 2936 1
  2191 2934 2935 1
  2192 2936 2937 1
  2193 2936 2938 1
  2194 2938 2939 1
  2195 2939 2940 am
  2196 2939 2946 1
  2197 2940 2942 1
  2198 2940 2941 2
  2199 2942 2943 2
  2200 2943 2945 2
  2201 2943 2944 2
  2202 2945 2946 2
  2203 2905 2927 1
  2204 2958 2959 1
  2205 2958 2960 1
  2206 2958 2961 1
  2207 2961 2962 1
  2208 2962 2963 1
  2209 2963 2964 1
  2210 2963 2965 1
  2211 2964 2969 1
  2212 2965 2966 1
  2213 2965 2967 1
  2214 2967 2968 1
  2215 2967 2969 1
  2216 2969 2970 1
  2217 2970 2977 1
  2218 2970 2971 am
  2219 2971 2973 am
  2220 2971 2972 2
  2221 2973 2974 am
  2222 2974 2975 2
  2223 2974 2976 1
  2224 2976 2977 2
  2225 2935 2958 1
  2226 2988 2989 1
  2227 2988 2990 1
  2228 2988 2991 1
  2229 2991 2992 1
  2230 2992 2993 1
  2231 2993 2995 1
  2232 2993 2994 1
  2233 2994 2999 1
  2234 2995 2997 1
  2235 2995 2996 1
  2236 2997 2999 1
  2237 2997 2998 1
  2238 2999 3000 1
  2239 3000 3010 ar
  2240 3000 3001 ar
  2241 3001 3002 ar
  2242 3002 3003 ar
  2243 3003 3010 ar
  2244 3003 3004 1
  2245 3004 3005 2
  2246 3004 3006 am
  2247 3006 3007 1
  2248 3007 3008 2
  2249 3007 3009 2
  2250 3009 3010 1
  2251 2966 2988 1
  2252 3022 3023 1
  2253 3022 3024 1
  2254 3022 3025 1
  2255 3025 3026 1
  2256 3026 3027 1
  2257 3027 3029 1
  2258 3027 3028 1
  2259 3028 3033 1
  2260 3029 3031 1
  2261 3029 3030 1
  2262 3031 3033 1
  2263 3031 3032 1
  2264 3033 3034 1
  2265 3034 3044 ar
  2266 3034 3035 ar
  2267 3035 3036 ar
  2268 3036 3037 ar
  2269 3037 3044 ar
  2270 3037 3038 1
  2271 3038 3039 2
  2272 3038 3040 am
  2273 3040 3041 1
  2274 3041 3042 2
  2275 3041 3043 2
  2276 3043 3044 1
  2277 2996 3022 1
  2278 3056 3058 1
  2279 3056 3059 1
  2280 3056 3057 1
  2281 3059 3060 1
  2282 3060 3061 1
  2283 3061 3062 1
  2284 3061 3063 1
  2285 3062 3067 1
  2286 3063 3065 1
  2287 3063 3064 1
  2288 3065 3066 1
  2289 3065 3067 1
  2290 3067 3068 1
  2291 3068 3069 ar
  2292 3068 3077 ar
  2293 3069 3070 ar
  2294 3070 3071 ar
  2295 3071 3072 ar
  2296 3071 3077 ar
  2297 3072 3074 ar
  2298 3072 3073 1
  2299 3074 3075 ar
  2300 3075 3076 ar
  2301 3076 3077 ar
  2302 3030 3056 1
  2303 3089 3090 1
  2304 3089 3091 1
  2305 3089 3092 1
  2306 3092 3093 1
  2307 3093 3094 1
  2308 3094 3095 1
  2309 3094 3096 1
  2310 3095 3100 1
  2311 3096 3097 1
  2312 3096 3098 1
  2313 3098 3099 1
  2314 3098 3100 1
  2315 3100 3101 1
  2316 3101 3108 1
  2317 3101 3102 am
  2318 3102 3104 am
  2319 3102 3103 2
  2320 3104 3105 am
  2321 3105 3106 2
  2322 3105 3107 1
  2323 3107 3108 2
  2324 3064 3089 1
  2325 3119 3120 1
  2326 3119 3121 1
  2327 3119 3122 1
  2328 3122 3123 1
  2329 3123 3124 1
  2330 3124 3126 1
  2331 3124 3125 1
  2332 3125 3130 1
  2333 3126 3128 1
  2334 3126 3127 1
  2335 3128 3130 1
  2336 3128 3129 1
  2337 3130 3131 1
  2338 3131 3141 ar
  2339 3131 3132 ar
  2340 3132 3133 ar
  2341 3133 3134 ar
  2342 3134 3141 ar
  2343 3134 3135 1
  2344 3135 3136 2
  2345 3135 3137 am
  2346 3137 3138 1
  2347 3138 3139 2
  2348 3138 3140 2
  2349 3140 3141 1
  2350 3097 3119 1
  2351 3153 3155 1
  2352 3153 3156 1
  2353 3153 3154 1
  2354 3156 3157 1
  2355 3157 3158 1
  2356 3158 3159 1
  2357 3158 3160 1
  2358 3159 3164 1
  2359 3160 3162 1
  2360 3160 3161 1
  2361 3162 3163 1
  2362 3162 3164 1
  2363 3164 3165 1
  2364 3165 3166 ar
  2365 3165 3174 ar
  2366 3166 3167 ar
  2367 3167 3168 ar
  2368 3168 3169 ar
  2369 3168 3174 ar
  2370 3169 3171 ar
  2371 3169 3170 1
  2372 3171 3172 ar
  2373 3172 3173 ar
  2374 3173 3174 ar
  2375 3127 3153 1
  2376 3186 3187 1
  2377 3186 3188 1
  2378 3186 3189 1
  2379 3189 3190 1
  2380 3190 3191 1
  2381 3191 3193 1
  2382 3191 3192 1
  2383 3192 3197 1
  2384 3193 3195 1
  2385 3193 3194 1
  2386 3195 3197 1
  2387 3195 3196 1
  2388 3197 3198 1
  2389 3198 3208 ar
  2390 3198 3199 ar
  2391 3199 3200 ar
  2392 3200 3201 ar
  2393 3201 3208 ar
  2394 3201 3202 1
  2395 3202 3203 2
  2396 3202 3204 am
  2397 3204 3205 1
  2398 3205 3206 2
  2399 3205 3207 2
  2400 3207 3208 1
  2401 3161 3186 1
  2402 3220 3222 1
  2403 3220 3223 1
  2404 3220 3221 1
  2405 3223 3224 1
  2406 3224 3225 1
  2407 3225 3226 1
  2408 3225 3227 1
  2409 3226 3231 1
  2410 3227 3229 1
  2411 3227 3228 1
  2412 3229 3230 1
  2413 3229 3231 1
  2414 3231 3232 1
  2415 3232 3233 ar
  2416 3232 3241 ar
  2417 3233 3234 ar
  2418 3234 3235 ar
  2419 3235 3236 ar
  2420 3235 3241 ar
  2421 3236 3238 ar
  2422 3236 3237 1
  2423 3238 3239 ar
  2424 3239 3240 ar
  2425 3240 3241 ar
  2426 3194 3220 1
  2427 3253 3254 1
  2428 3253 3255 1
  2429 3253 3256 1
  2430 3256 3257 1
  2431 3257 3258 1
  2432 3258 3260 1
  2433 3258 3259 1
  2434 3259 3264 1
  2435 3260 3262 1
  2436 3260 3261 1
  2437 3262 3264 1
  2438 3262 3263 1
  2439 3264 3265 1
  2440 3265 3275 ar
  2441 3265 3266 ar
  2442 3266 3267 ar
  2443 3267 3268 ar
  2444 3268 3275 ar
  2445 3268 3269 1
  2446 3269 3270 2
  2447 3269 3271 am
  2448 3271 3272 1
  2449 3272 3273 2
  2450 3272 3274 2
  2451 3274 3275 1
  2452 3228 3253 1
  2453 3287 3289 1
  2454 3287 3290 1
  2455 3287 3288 1
  2456 3290 3291 1
  2457 3291 3292 1
  2458 3292 3293 1
  2459 3292 3294 1
  2460 3293 3298 1
  2461 3294 3296 1
  2462 3294 3295 1
  2463 3296 3297 1
  2464 3296 3298 1
  2465 3298 3299 1
  2466 3299 3300 ar
  2467 3299 3308 ar
  2468 3300 3301 ar
  2469 3301 3302 ar
  2470 3302 3303 ar
  2471 3302 3308 ar
  2472 3303 3305 ar
  2473 3303 3304 1
  2474 3305 3306 ar
  2475 3306 3307 ar
  2476 3307 3308 ar
  2477 3261 3287 1
  2478 3320 3322 1
  2479 3320 3323 1
  2480 3320 3321 1
  2481 3323 3324 1
  2482 3324 3325 1
  2483 3325 3326 1
  2484 3325 3327 1
  2485 3326 3331 1
  2486 3327 3329 1
  2487 3327 3328 1
  2488 3329 3330 1
  2489 3329 3331 1
  2490 3331 3332 1
  2491 3332 3333 ar
  2492 3332 3341 ar
  2493 3333 3334 ar
  2494 3334 3335 ar
  2495 3335 3336 ar
  2496 3335 3341 ar
  2497 3336 3338 ar
  2498 3336 3337 1
  2499 3338 3339 ar
  2500 3339 3340 ar
  2501 3340 3341 ar
  2502 3295 3320 1
  2503 3353 3354 1
  2504 3353 3355 1
  2505 3353 3356 1
  2506 3356 3357 1
  2507 3357 3358 1
  2508 3358 3360 1
  2509 3358 3359 1
  2510 3359 3364 1
  2511 3360 3362 1
  2512 3360 3361 1
  2513 3362 3364 1
  2514 3362 3363 1
  2515 3364 3365 1
  2516 3365 3375 ar
  2517 3365 3366 ar
  2518 3366 3367 ar
  2519 3367 3368 ar
  2520 3368 3375 ar
  2521 3368 3369 1
  2522 3369 3370 2
  2523 3369 3371 am
  2524 3371 3372 1
  2525 3372 3373 2
  2526 3372 3374 2
  2527 3374 3375 1
  2528 3328 3353 1
  2529 3387 3389 1
  2530 3387 3390 1
  2531 3387 3388 1
  2532 3390 3391 1
  2533 3391 3392 1
  2534 3392 3393 1
  2535 3392 3394 1
  2536 3393 3398 1
  2537 3394 3396 1
  2538 3394 3395 1
  2539 3396 3397 1
  2540 3396 3398 1
  2541 3398 3399 1
  2542 3399 3400 ar
  2543 3399 3408 ar
  2544 3400 3401 ar
  2545 3401 3402 ar
  2546 3402 3403 ar
  2547 3402 3408 ar
  2548 3403 3405 ar
  2549 3403 3404 1
  2550 3405 3406 ar
  2551 3406 3407 ar
  2552 3407 3408 ar
  2553 3361 3387 1
  2554 3420 3421 1
  2555 3420 3422 1
  2556 3420 3423 1
  2557 3423 3424 1
  2558 3424 3425 1
  2559 3425 3426 1
  2560 3425 3427 1
  2561 3426 3431 1
  2562 3427 3428 1
  2563 3427 3429 1
  2564 3429 3430 1
  2565 3429 3431 1
  2566 3431 3432 1
  2567 3432 3439 1
  2568 3432 3433 am
  2569 3433 3435 am
  2570 3433 3434 2
  2571 3435 3436 am
  2572 3436 3437 2
  2573 3436 3438 1
  2574 3438 3439 2
  2575 3395 3420 1
  2576 3453 3454 1
  2577 3454 3455 1
  2578 3455 3457 1
  2579 3455 3456 1
  2580 3456 3461 1
  2581 3457 3459 1
  2582 3457 3458 1
  2583 3459 3460 1
  2584 3459 3461 1
  2585 3461 3462 1
  2586 3462 3469 1
  2587 3462 3463 am
  2588 3463 3465 am
  2589 3463 3464 2
  2590 3465 3466 am
  2591 3466 3468 1
  2592 3466 3467 2
  2593 3468 3469 2
  2594 3450 3451 1
  2595 3450 3452 1
  2596 3450 3453 1
  2597 3428 3450 1
  2598 3480 3481 1
  2599 3480 3482 1
  2600 3480 3491 1
  2601 3480 3493 1
  2602 3483 3484 1
  2603 3483 3485 1
  2604 3483 3486 1
  2605 3486 3487 1
  2606 3487 3488 1
  2607 3488 3489 1
  2608 3488 3490 1
  2609 3489 3494 1
  2610 3490 3491 1
  2611 3490 3492 1
  2612 3492 3493 1
  2613 3492 3494 1
  2614 3494 3495 1
  2615 3495 3496 am
  2616 3495 3502 1
  2617 3496 3497 2
  2618 3496 3498 1
  2619 3498 3499 2
  2620 3499 3500 2
  2621 3499 3501 2
  2622 3501 3502 2
  2623 3458 3483 1
  2624   33   14 1
  2625   34   14 1
  2626   35   15 1
  2627   36   17 1
  2628   37   19 1
  2629   38   21 1
  2630   39   23 1
  2631   40   31 1
  2632   67   48 1
  2633   68   48 1
  2634   69   49 1
  2635   70   51 1
  2636   71   53 1
  2637   72   55 1
  2638   73   57 1
  2639   74   62 1
  2640  100   82 1
  2641  101   82 1
  2642  102   83 1
  2643  103   85 1
  2644  104   87 1
  2645  105   89 1
  2646  106   91 1
  2647  107   97 1
  2648  131  115 1
  2649  132  115 1
  2650  133  116 1
  2651  134  118 1
  2652  135  120 1
  2653  136  122 1
  2654  137  126 1
  2655  138  129 1
  2656  139  130 1
  2657  161  145 1
  2658  162  145 1
  2659  163  146 1
  2660  164  148 1
  2661  165  150 1
  2662  166  152 1
  2663  167  159 1
  2664  168  160 1
  2665  192  176 1
  2666  193  176 1
  2667  194  177 1
  2668  195  179 1
  2669  196  181 1
  2670  197  183 1
  2671  198  187 1
  2672  199  190 1
  2673  200  191 1
  2674  222  206 1
  2675  223  206 1
  2676  224  207 1
  2677  225  209 1
  2678  226  211 1
  2679  227  213 1
  2680  228  217 1
  2681  229  220 1
  2682  230  221 1
  2683  252  236 1
  2684  253  236 1
  2685  254  237 1
  2686  255  239 1
  2687  256  241 1
  2688  257  243 1
  2689  258  250 1
  2690  259  251 1
  2691  286  267 1
  2692  287  267 1
  2693  288  268 1
  2694  289  270 1
  2695  290  272 1
  2696  291  274 1
  2697  292  276 1
  2698  293  281 1
  2699  320  301 1
  2700  321  301 1
  2701  322  302 1
  2702  323  304 1
  2703  324  306 1
  2704  325  308 1
  2705  326  310 1
  2706  327  315 1
  2707  354  335 1
  2708  355  335 1
  2709  356  336 1
  2710  357  338 1
  2711  358  340 1
  2712  359  342 1
  2713  360  344 1
  2714  361  349 1
  2715  388  369 1
  2716  389  369 1
  2717  390  370 1
  2718  391  372 1
  2719  392  374 1
  2720  393  376 1
  2721  394  378 1
  2722  395  383 1
  2723  419  403 1
  2724  420  403 1
  2725  421  404 1
  2726  422  406 1
  2727  423  408 1
  2728  424  410 1
  2729  425  417 1
  2730  426  418 1
  2731  452  434 1
  2732  453  434 1
  2733  454  435 1
  2734  455  437 1
  2735  456  439 1
  2736  457  441 1
  2737  458  443 1
  2738  459  449 1
  2739  486  467 1
  2740  487  467 1
  2741  488  468 1
  2742  489  470 1
  2743  490  472 1
  2744  491  474 1
  2745  492  476 1
  2746  493  481 1
  2747  520  501 1
  2748  521  501 1
  2749  522  502 1
  2750  523  504 1
  2751  524  506 1
  2752  525  508 1
  2753  526  510 1
  2754  527  515 1
  2755  554  535 1
  2756  555  535 1
  2757  556  536 1
  2758  557  538 1
  2759  558  540 1
  2760  559  542 1
  2761  560  544 1
  2762  561  549 1
  2763  585  569 1
  2764  586  569 1
  2765  587  570 1
  2766  588  572 1
  2767  589  574 1
  2768  590  576 1
  2769  591  580 1
  2770  592  583 1
  2771  593  584 1
  2772  618  599 1
  2773  619  599 1
  2774  620  600 1
  2775  621  602 1
  2776  622  604 1
  2777  623  606 1
  2778  624  608 1
  2779  625  613 1
  2780  651  633 1
  2781  652  633 1
  2782  653  634 1
  2783  654  636 1
  2784  655  638 1
  2785  656  640 1
  2786  657  642 1
  2787  658  648 1
  2788  684  666 1
  2789  685  666 1
  2790  686  667 1
  2791  687  669 1
  2792  688  671 1
  2793  689  673 1
  2794  690  675 1
  2795  691  681 1
  2796  717  699 1
  2797  718  699 1
  2798  719  700 1
  2799  720  702 1
  2800  721  704 1
  2801  722  706 1
  2802  723  708 1
  2803  724  714 1
  2804  748  732 1
  2805  749  732 1
  2806  750  733 1
  2807  751  735 1
  2808  752  737 1
  2809  753  739 1
  2810  754  743 1
  2811  755  746 1
  2812  756  747 1
  2813  778  762 1
  2814  779  762 1
  2815  780  763 1
  2816  781  765 1
  2817  782  767 1
  2818  783  769 1
  2819  784  773 1
  2820  785  776 1
  2821  786  777 1
  2822  808  792 1
  2823  809  792 1
  2824  810  793 1
  2825  811  795 1
  2826  812  797 1
  2827  813  799 1
  2828  814  806 1
  2829  815  807 1
  2830  839  823 1
  2831  840  823 1
  2832  841  824 1
  2833  842  826 1
  2834  843  828 1
  2835  844  830 1
  2836  845  837 1
  2837  846  838 1
  2838  870  854 1
  2839  871  854 1
  2840  872  855 1
  2841  873  857 1
  2842  874  859 1
  2843  875  861 1
  2844  876  868 1
  2845  877  869 1
  2846  904  885 1
  2847  905  885 1
  2848  906  886 1
  2849  907  888 1
  2850  908  890 1
  2851  909  892 1
  2852  910  894 1
  2853  911  899 1
  2854  937  919 1
  2855  938  919 1
  2856  939  920 1
  2857  940  922 1
  2858  941  924 1
  2859  942  926 1
  2860  943  928 1
  2861  944  934 1
  2862  968  952 1
  2863  969  952 1
  2864  970  953 1
  2865  971  955 1
  2866  972  957 1
  2867  973  959 1
  2868  974  966 1
  2869  975  967 1
  2870  999  983 1
  2871 1000  983 1
  2872 1001  984 1
  2873 1002  986 1
  2874 1003  988 1
  2875 1004  990 1
  2876 1005  997 1
  2877 1006  998 1
  2878 1033 1014 1
  2879 1034 1014 1
  2880 1035 1015 1
  2881 1036 1017 1
  2882 1037 1019 1
  2883 1038 1021 1
  2884 1039 1023 1
  2885 1040 1028 1
  2886 1067 1048 1
  2887 1068 1048 1
  2888 1069 1049 1
  2889 1070 1051 1
  2890 1071 1053 1
  2891 1072 1055 1
  2892 1073 1057 1
  2893 1074 1062 1
  2894 1098 1082 1
  2895 1099 1082 1
  2896 1100 1083 1
  2897 1101 1085 1
  2898 1102 1087 1
  2899 1103 1089 1
  2900 1104 1093 1
  2901 1105 1096 1
  2902 1106 1097 1
  2903 1131 1112 1
  2904 1132 1112 1
  2905 1133 1113 1
  2906 1134 1115 1
  2907 1135 1117 1
  2908 1136 1119 1
  2909 1137 1121 1
  2910 1138 1126 1
  2911 1165 1146 1
  2912 1166 1146 1
  2913 1167 1147 1
  2914 1168 1149 1
  2915 1169 1151 1
  2916 1170 1153 1
  2917 1171 1155 1
  2918 1172 1160 1
  2919 1196 1180 1
  2920 1197 1180 1
  2921 1198 1181 1
  2922 1199 1183 1
  2923 1200 1185 1
  2924 1201 1187 1
  2925 1202 1191 1
  2926 1203 1194 1
  2927 1204 1195 1
  2928 1228 1210 1
  2929 1229 1210 1
  2930 1230 1211 1
  2931 1231 1213 1
  2932 1232 1215 1
  2933 1233 1217 1
  2934 1234 1219 1
  2935 1235 1225 1
  2936 1259 1243 1
  2937 1260 1243 1
  2938 1261 1244 1
  2939 1262 1246 1
  2940 1263 1248 1
  2941 1264 1250 1
  2942 1265 1254 1
  2943 1266 1257 1
  2944 1267 1258 1
  2945 1291 1273 1
  2946 1292 1273 1
  2947 1293 1274 1
  2948 1294 1276 1
  2949 1295 1278 1
  2950 1296 1280 1
  2951 1297 1282 1
  2952 1298 1288 1
  2953 1325 1306 1
  2954 1326 1306 1
  2955 1327 1307 1
  2956 1328 1309 1
  2957 1329 1311 1
  2958 1330 1313 1
  2959 1331 1315 1
  2960 1332 1320 1
  2961 1356 1340 1
  2962 1357 1340 1
  2963 1358 1341 1
  2964 1359 1343 1
  2965 1360 1345 1
  2966 1361 1347 1
  2967 1362 1351 1
  2968 1363 1354 1
  2969 1364 1355 1
  2970 1386 1370 1
  2971 1387 1370 1
  2972 1388 1371 1
  2973 1389 1373 1
  2974 1390 1375 1
  2975 1391 1377 1
  2976 1392 1384 1
  2977 1393 1385 1
  2978 1417 1401 1
  2979 1418 1401 1
  2980 1419 1402 1
  2981 1420 1404 1
  2982 1421 1406 1
  2983 1422 1408 1
  2984 1423 1415 1
  2985 1424 1416 1
  2986 1450 1432 1
  2987 1451 1432 1
  2988 1452 1433 1
  2989 1453 1435 1
  2990 1454 1437 1
  2991 1455 1439 1
  2992 1456 1441 1
  2993 1457 1447 1
  2994 1481 1465 1
  2995 1482 1465 1
  2996 1483 1466 1
  2997 1484 1468 1
  2998 1485 1470 1
  2999 1486 1472 1
  3000 1487 1479 1
  3001 1488 1480 1
  3002 1515 1496 1
  3003 1516 1496 1
  3004 1517 1497 1
  3005 1518 1499 1
  3006 1519 1501 1
  3007 1520 1503 1
  3008 1521 1505 1
  3009 1522 1510 1
  3010 1548 1530 1
  3011 1549 1530 1
  3012 1550 1531 1
  3013 1551 1533 1
  3014 1552 1535 1
  3015 1553 1537 1
  3016 1554 1539 1
  3017 1555 1545 1
  3018 1581 1563 1
  3019 1582 1563 1
  3020 1583 1564 1
  3021 1584 1566 1
  3022 1585 1568 1
  3023 1586 1570 1
  3024 1587 1572 1
  3025 1588 1578 1
  3026 1614 1596 1
  3027 1615 1596 1
  3028 1616 1597 1
  3029 1617 1599 1
  3030 1618 1601 1
  3031 1619 1603 1
  3032 1620 1605 1
  3033 1621 1611 1
  3034 1648 1629 1
  3035 1649 1629 1
  3036 1650 1630 1
  3037 1651 1632 1
  3038 1652 1634 1
  3039 1653 1636 1
  3040 1654 1638 1
  3041 1655 1643 1
  3042 1679 1663 1
  3043 1680 1663 1
  3044 1681 1664 1
  3045 1682 1666 1
  3046 1683 1668 1
  3047 1684 1670 1
  3048 1685 1674 1
  3049 1686 1677 1
  3050 1687 1678 1
  3051 1701 1693 1
  3052 1702 1693 1
  3053 1703 1694 1
  3054 1704 1696 1
  3055 1705 1698 1
  3056 1706 1700 1
  3057 1707 1700 1
  3058 1732 1713 1
  3059 1733 1713 1
  3060 1734 1714 1
  3061 1735 1716 1
  3062 1736 1718 1
  3063 1737 1720 1
  3064 1738 1722 1
  3065 1739 1727 1
  3066 1763 1747 1
  3067 1764 1747 1
  3068 1765 1748 1
  3069 1766 1750 1
  3070 1767 1752 1
  3071 1768 1754 1
  3072 1769 1761 1
  3073 1770 1762 1
  3074 1794 1778 1
  3075 1795 1778 1
  3076 1796 1779 1
  3077 1797 1781 1
  3078 1798 1783 1
  3079 1799 1785 1
  3080 1800 1789 1
  3081 1801 1792 1
  3082 1802 1793 1
  3083 1824 1808 1
  3084 1825 1808 1
  3085 1826 1809 1
  3086 1827 1811 1
  3087 1828 1813 1
  3088 1829 1815 1
  3089 1830 1819 1
  3090 1831 1822 1
  3091 1832 1823 1
  3092 1854 1838 1
  3093 1855 1838 1
  3094 1856 1839 1
  3095 1857 1841 1
  3096 1858 1843 1
  3097 1859 1845 1
  3098 1860 1849 1
  3099 1861 1852 1
  3100 1862 1853 1
  3101 1887 1868 1
  3102 1888 1868 1
  3103 1889 1869 1
  3104 1890 1871 1
  3105 1891 1873 1
  3106 1892 1875 1
  3107 1893 1877 1
  3108 1894 1882 1
  3109 1920 1902 1
  3110 1921 1902 1
  3111 1922 1903 1
  3112 1923 1905 1
  3113 1924 1907 1
  3114 1925 1909 1
  3115 1926 1911 1
  3116 1927 1917 1
  3117 1951 1935 1
  3118 1952 1935 1
  3119 1953 1936 1
  3120 1954 1938 1
  3121 1955 1940 1
  3122 1956 1942 1
  3123 1957 1946 1
  3124 1958 1949 1
  3125 1959 1950 1
  3126 1981 1965 1
  3127 1982 1965 1
  3128 1983 1966 1
  3129 1984 1968 1
  3130 1985 1970 1
  3131 1986 1972 1
  3132 1987 1976 1
  3133 1988 1979 1
  3134 1989 1980 1
  3135 2011 1995 1
  3136 2012 1995 1
  3137 2013 1996 1
  3138 2014 1998 1
  3139 2015 2000 1
  3140 2016 2002 1
  3141 2017 2006 1
  3142 2018 2009 1
  3143 2019 2010 1
  3144 2044 2025 1
  3145 2045 2025 1
  3146 2046 2026 1
  3147 2047 2028 1
  3148 2048 2030 1
  3149 2049 2032 1
  3150 2050 2034 1
  3151 2051 2039 1
  3152 2078 2059 1
  3153 2079 2059 1
  3154 2080 2060 1
  3155 2081 2062 1
  3156 2082 2064 1
  3157 2083 2066 1
  3158 2084 2068 1
  3159 2085 2073 1
  3160 2109 2093 1
  3161 2110 2093 1
  3162 2111 2094 1
  3163 2112 2096 1
  3164 2113 2098 1
  3165 2114 2100 1
  3166 2115 2104 1
  3167 2116 2107 1
  3168 2117 2108 1
  3169 2142 2123 1
  3170 2143 2123 1
  3171 2144 2124 1
  3172 2145 2126 1
  3173 2146 2128 1
  3174 2147 2130 1
  3175 2148 2132 1
  3176 2149 2137 1
  3177 2175 2157 1
  3178 2176 2157 1
  3179 2177 2158 1
  3180 2178 2160 1
  3181 2179 2162 1
  3182 2180 2164 1
  3183 2181 2166 1
  3184 2182 2172 1
  3185 2208 2190 1
  3186 2209 2190 1
  3187 2210 2191 1
  3188 2211 2193 1
  3189 2212 2195 1
  3190 2213 2197 1
  3191 2214 2199 1
  3192 2215 2205 1
  3193 2241 2223 1
  3194 2242 2223 1
  3195 2243 2224 1
  3196 2244 2226 1
  3197 2245 2228 1
  3198 2246 2230 1
  3199 2247 2232 1
  3200 2248 2238 1
  3201 2272 2256 1
  3202 2273 2256 1
  3203 2274 2257 1
  3204 2275 2259 1
  3205 2276 2261 1
  3206 2277 2263 1
  3207 2278 2267 1
  3208 2279 2270 1
  3209 2280 2271 1
  3210 2302 2286 1
  3211 2303 2286 1
  3212 2304 2287 1
  3213 2305 2289 1
  3214 2306 2291 1
  3215 2307 2293 1
  3216 2308 2297 1
  3217 2309 2300 1
  3218 2310 2301 1
  3219 2332 2316 1
  3220 2333 2316 1
  3221 2334 2317 1
  3222 2335 2319 1
  3223 2336 2321 1
  3224 2337 2323 1
  3225 2338 2330 1
  3226 2339 2331 1
  3227 2363 2347 1
  3228 2364 2347 1
  3229 2365 2348 1
  3230 2366 2350 1
  3231 2367 2352 1
  3232 2368 2354 1
  3233 2369 2361 1
  3234 2370 2362 1
  3235 2396 2378 1
  3236 2397 2378 1
  3237 2398 2379 1
  3238 2399 2381 1
  3239 2400 2383 1
  3240 2401 2385 1
  3241 2402 2387 1
  3242 2403 2393 1
  3243 2429 2411 1
  3244 2430 2411 1
  3245 2431 2412 1
  3246 2432 2414 1
  3247 2433 2416 1
  3248 2434 2418 1
  3249 2435 2420 1
  3250 2436 2426 1
  3251 2462 2444 1
  3252 2463 2444 1
  3253 2464 2445 1
  3254 2465 2447 1
  3255 2466 2449 1
  3256 2467 2451 1
  3257 2468 2453 1
  3258 2469 2459 1
  3259 2495 2477 1
  3260 2496 2477 1
  3261 2497 2478 1
  3262 2498 2480 1
  3263 2499 2482 1
  3264 2500 2484 1
  3265 2501 2486 1
  3266 2502 2492 1
  3267 2526 2510 1
  3268 2527 2510 1
  3269 2528 2511 1
  3270 2529 2513 1
  3271 2530 2515 1
  3272 2531 2517 1
  3273 2532 2524 1
  3274 2533 2525 1
  3275 2557 2541 1
  3276 2558 2541 1
  3277 2559 2542 1
  3278 2560 2544 1
  3279 2561 2546 1
  3280 2562 2548 1
  3281 2563 2555 1
  3282 2564 2556 1
  3283 2591 2572 1
  3284 2592 2572 1
  3285 2593 2573 1
  3286 2594 2575 1
  3287 2595 2577 1
  3288 2596 2579 1
  3289 2597 2581 1
  3290 2598 2586 1
  3291 2624 2606 1
  3292 2625 2606 1
  3293 2626 2607 1
  3294 2627 2609 1
  3295 2628 2611 1
  3296 2629 2613 1
  3297 2630 2615 1
  3298 2631 2621 1
  3299 2655 2639 1
  3300 2656 2639 1
  3301 2657 2640 1
  3302 2658 2642 1
  3303 2659 2644 1
  3304 2660 2646 1
  3305 2661 2653 1
  3306 2662 2654 1
  3307 2688 2670 1
  3308 2689 2670 1
  3309 2690 2671 1
  3310 2691 2673 1
  3311 2692 2675 1
  3312 2693 2677 1
  3313 2694 2679 1
  3314 2695 2685 1
  3315 2722 2703 1
  3316 2723 2703 1
  3317 2724 2704 1
  3318 2725 2706 1
  3319 2726 2708 1
  3320 2727 2710 1
  3321 2728 2712 1
  3322 2729 2717 1
  3323 2753 2737 1
  3324 2754 2737 1
  3325 2755 2738 1
  3326 2756 2740 1
  3327 2757 2742 1
  3328 2758 2744 1
  3329 2759 2748 1
  3330 2760 2751 1
  3331 2761 2752 1
  3332 2785 2767 1
  3333 2786 2767 1
  3334 2787 2768 1
  3335 2788 2770 1
  3336 2789 2772 1
  3337 2790 2774 1
  3338 2791 2776 1
  3339 2792 2782 1
  3340 2819 2800 1
  3341 2820 2800 1
  3342 2821 2801 1
  3343 2822 2803 1
  3344 2823 2805 1
  3345 2824 2807 1
  3346 2825 2809 1
  3347 2826 2814 1
  3348 2852 2834 1
  3349 2853 2834 1
  3350 2854 2835 1
  3351 2855 2837 1
  3352 2856 2839 1
  3353 2857 2841 1
  3354 2858 2843 1
  3355 2859 2849 1
  3356 2886 2867 1
  3357 2887 2867 1
  3358 2888 2868 1
  3359 2889 2870 1
  3360 2890 2872 1
  3361 2891 2874 1
  3362 2892 2876 1
  3363 2893 2881 1
  3364 2917 2901 1
  3365 2918 2901 1
  3366 2919 2902 1
  3367 2920 2904 1
  3368 2921 2906 1
  3369 2922 2908 1
  3370 2923 2912 1
  3371 2924 2915 1
  3372 2925 2916 1
  3373 2947 2931 1
  3374 2948 2931 1
  3375 2949 2932 1
  3376 2950 2934 1
  3377 2951 2936 1
  3378 2952 2938 1
  3379 2953 2945 1
  3380 2954 2946 1
  3381 2978 2962 1
  3382 2979 2962 1
  3383 2980 2963 1
  3384 2981 2965 1
  3385 2982 2967 1
  3386 2983 2969 1
  3387 2984 2973 1
  3388 2985 2976 1
  3389 2986 2977 1
  3390 3011 2992 1
  3391 3012 2992 1
  3392 3013 2993 1
  3393 3014 2995 1
  3394 3015 2997 1
  3395 3016 2999 1
  3396 3017 3001 1
  3397 3018 3006 1
  3398 3045 3026 1
  3399 3046 3026 1
  3400 3047 3027 1
  3401 3048 3029 1
  3402 3049 3031 1
  3403 3050 3033 1
  3404 3051 3035 1
  3405 3052 3040 1
  3406 3078 3060 1
  3407 3079 3060 1
  3408 3080 3061 1
  3409 3081 3063 1
  3410 3082 3065 1
  3411 3083 3067 1
  3412 3084 3069 1
  3413 3085 3075 1
  3414 3109 3093 1
  3415 3110 3093 1
  3416 3111 3094 1
  3417 3112 3096 1
  3418 3113 3098 1
  3419 3114 3100 1
  3420 3115 3104 1
  3421 3116 3107 1
  3422 3117 3108 1
  3423 3142 3123 1
  3424 3143 3123 1
  3425 3144 3124 1
  3426 3145 3126 1
  3427 3146 3128 1
  3428 3147 3130 1
  3429 3148 3132 1
  3430 3149 3137 1
  3431 3175 3157 1
  3432 3176 3157 1
  3433 3177 3158 1
  3434 3178 3160 1
  3435 3179 3162 1
  3436 3180 3164 1
  3437 3181 3166 1
  3438 3182 3172 1
  3439 3209 3190 1
  3440 3210 3190 1
  3441 3211 3191 1
  3442 3212 3193 1
  3443 3213 3195 1
  3444 3214 3197 1
  3445 3215 3199 1
  3446 3216 3204 1
  3447 3242 3224 1
  3448 3243 3224 1
  3449 3244 3225 1
  3450 3245 3227 1
  3451 3246 3229 1
  3452 3247 3231 1
  3453 3248 3233 1
  3454 3249 3239 1
  3455 3276 3257 1
  3456 3277 3257 1
  3457 3278 3258 1
  3458 3279 3260 1
  3459 3280 3262 1
  3460 3281 3264 1
  3461 3282 3266 1
  3462 3283 3271 1
  3463 3309 3291 1
  3464 3310 3291 1
  3465 3311 3292 1
  3466 3312 3294 1
  3467 3313 3296 1
  3468 3314 3298 1
  3469 3315 3300 1
  3470 3316 3306 1
  3471 3342 3324 1
  3472 3343 3324 1
  3473 3344 3325 1
  3474 3345 3327 1
  3475 3346 3329 1
  3476 3347 3331 1
  3477 3348 3333 1
  3478 3349 3339 1
  3479 3376 3357 1
  3480 3377 3357 1
  3481 3378 3358 1
  3482 3379 3360 1
  3483 3380 3362 1
  3484 3381 3364 1
  3485 3382 3366 1
  3486 3383 3371 1
  3487 3409 3391 1
  3488 3410 3391 1
  3489 3411 3392 1
  3490 3412 3394 1
  3491 3413 3396 1
  3492 3414 3398 1
  3493 3415 3400 1
  3494 3416 3406 1
  3495 3440 3424 1
  3496 3441 3424 1
  3497 3442 3425 1
  3498 3443 3427 1
  3499 3444 3429 1
  3500 3445 3431 1
  3501 3446 3435 1
  3502 3447 3438 1
  3503 3448 3439 1
  3504 3470 3454 1
  3505 3471 3454 1
  3506 3472 3455 1
  3507 3473 3457 1
  3508 3474 3459 1
  3509 3475 3461 1
  3510 3476 3465 1
  3511 3477 3468 1
  3512 3478 3469 1
  3513 3503 3487 1
  3514 3504 3487 1
  3515 3505 3488 1
  3516 3506 3490 1
  3517 3507 3492 1
  3518 3508 3494 1
  3519 3509 3501 1
  3520 3510 3502 1
  3521   41   30 1
  3522   42   30 1
  3523   75   64 1
  3524   76   64 1
  3525  169  158 1
  3526  170  158 1
  3527  260  249 1
  3528  261  249 1
  3529  294  283 1
  3530  295  283 1
  3531  328  317 1
  3532  329  317 1
  3533  362  351 1
  3534  363  351 1
  3535  396  385 1
  3536  397  385 1
  3537  427  416 1
  3538  428  416 1
  3539  494  483 1
  3540  495  483 1
  3541  528  517 1
  3542  529  517 1
  3543  562  551 1
  3544  563  551 1
  3545  626  615 1
  3546  627  615 1
  3547  816  805 1
  3548  817  805 1
  3549  847  836 1
  3550  848  836 1
  3551  878  867 1
  3552  879  867 1
  3553  912  901 1
  3554  913  901 1
  3555  976  965 1
  3556  977  965 1
  3557 1007  996 1
  3558 1008  996 1
  3559 1041 1030 1
  3560 1042 1030 1
  3561 1075 1064 1
  3562 1076 1064 1
  3563 1139 1128 1
  3564 1140 1128 1
  3565 1173 1162 1
  3566 1174 1162 1
  3567 1333 1322 1
  3568 1334 1322 1
  3569 1394 1383 1
  3570 1395 1383 1
  3571 1425 1414 1
  3572 1426 1414 1
  3573 1489 1478 1
  3574 1490 1478 1
  3575 1523 1512 1
  3576 1524 1512 1
  3577 1656 1645 1
  3578 1657 1645 1
  3579 1740 1729 1
  3580 1741 1729 1
  3581 1771 1760 1
  3582 1772 1760 1
  3583 1895 1884 1
  3584 1896 1884 1
  3585 2052 2041 1
  3586 2053 2041 1
  3587 2086 2075 1
  3588 2087 2075 1
  3589 2150 2139 1
  3590 2151 2139 1
  3591 2340 2329 1
  3592 2341 2329 1
  3593 2371 2360 1
  3594 2372 2360 1
  3595 2534 2523 1
  3596 2535 2523 1
  3597 2565 2554 1
  3598 2566 2554 1
  3599 2599 2588 1
  3600 2600 2588 1
  3601 2663 2652 1
  3602 2664 2652 1
  3603 2730 2719 1
  3604 2731 2719 1
  3605 2827 2816 1
  3606 2828 2816 1
  3607 2894 2883 1
  3608 2895 2883 1
  3609 2955 2944 1
  3610 2956 2944 1
  3611 3019 3008 1
  3612 3020 3008 1
  3613 3053 3042 1
  3614 3054 3042 1
  3615 3150 3139 1
  3616 3151 3139 1
  3617 3217 3206 1
  3618 3218 3206 1
  3619 3284 3273 1
  3620 3285 3273 1
  3621 3384 3373 1
  3622 3385 3373 1
  3623 3511 3500 1
  3624 3512 3500 1
  3625 3250 3230 1
  3626  978  958 1
  3627 2567 2547 1
  3628 2536 2516 1
  3629 3286 3263 1
  3630 1009  989 1
  3631  914  891 1
  3632 2311 2292 1
  3633 3219 3196 1
  3634 2829 2806 1
  3635 1299 1286 1
  3636 1300 1286 1
  3637  692  679 1
  3638  693  679 1
  3639 2216 2203 1
  3640 2217 2203 1
  3641 3086 3073 1
  3642 3087 3073 1
  3643 1236 1223 1
  3644 1237 1223 1
  3645 3350 3337 1
  3646 3351 3337 1
  3647 1622 1609 1
  3648 1623 1609 1
  3649 1928 1915 1
  3650 1929 1915 1
  3651 2860 2847 1
  3652 2861 2847 1
  3653  945  932 1
  3654  946  932 1
  3655  108   95 1
  3656  109   95 1
  3657 1556 1543 1
  3658 1557 1543 1
  3659 2696 2683 1
  3660 2697 2683 1
  3661 2470 2457 1
  3662 2471 2457 1
  3663  725  712 1
  3664  726  712 1
  3665 2632 2619 1
  3666 2633 2619 1
  3667 2249 2236 1
  3668 2250 2236 1
  3669 2404 2391 1
  3670 2405 2391 1
  3671  659  646 1
  3672  660  646 1
  3673 3317 3304 1
  3674 3318 3304 1
  3675 1458 1445 1
  3676 1459 1445 1
  3677 2183 2170 1
  3678 2184 2170 1
  3679 3251 3237 1
  3680 3252 3237 1
  3681 1589 1576 1
  3682 1590 1576 1
  3683 3183 3170 1
  3684 3184 3170 1
  3685 2503 2490 1
  3686 2504 2490 1
  3687 2793 2780 1
  3688 2794 2780 1
  3689 3417 3404 1
  3690 3418 3404 1
  3691  460  447 1
  3692  461  447 1
  3693 2437 2424 1
  3694 2438 2424 1
  3695 1491 1471 1
  3696  296  273 1
  3697 1525 1502 1
  3698  364  341 1
  3699  787  768 1
  3700 1107 1088 1
  3701 1268 1249 1
  3702 1897 1874 1
  3703  398  375 1
  3704 1930 1908 1
  3705 1773 1753 1
  3706 2373 2353 1
  3707  262  242 1
  3708 2088 2065 1
  3709 3152 3129 1
  3710 1460 1438 1
  3711  727  705 1
  3712 2634 2612 1
  3713  429  409 1
  3714 1043 1020 1
  3715  201  182 1
  3716 3319 3297 1
  3717 1803 1784 1
  3718 1205 1186 1
  3719 2118 2099 1
  3720 3185 3163 1
  3721  757  738 1
  3722  462  440 1
  3723 2281 2262 1
  3724   77   54 1
  3725 2896 2873 1
  3726 1833 1814 1
  3727 3352 3330 1
  3728 2601 2578 1
  3729 1238 1216 1
  3730 2152 2129 1
  3731  330  307 1
  3732 1175 1152 1
  3733  496  473 1
  3734 1863 1844 1
  3735 2926 2907 1
  3736 1077 1054 1
  3737 3088 3066 1
  3738 2698 2676 1
  3739 2185 2163 1
  3740  818  798 1
  3741   43   20 1
  3742 2342 2322 1
  3743  530  507 1
  3744 1141 1118 1
  3745 1990 1971 1
  3746 3419 3397 1
  3747 2665 2645 1
  3748 1301 1279 1
  3749  849  829 1
  3750 1591 1569 1
  3751  628  605 1
  3752 2957 2937 1
  3753 2987 2968 1
  3754 1624 1602 1
  3755  564  541 1
  3756  110   88 1
  3757 3449 3430 1
  3758 1335 1312 1
  3759  880  860 1
  3760 2406 2384 1
  3761 2862 2840 1
  3762 1658 1635 1
  3763 1960 1941 1
  3764  594  575 1
  3765  140  121 1
  3766 2732 2709 1
  3767 1365 1346 1
  3768 2439 2417 1
  3769 3118 3099 1
  3770 3021 2998 1
  3771 1688 1669 1
  3772  171  151 1
  3773 2762 2743 1
  3774 1396 1376 1
  3775  947  925 1
  3776 3055 3032 1
  3777 2472 2450 1
  3778 2020 2001 1
  3779 1708 1699 1
  3780 1558 1536 1
  3781  661  639 1
  3782 2795 2773 1
  3783 1427 1407 1
  3784 1742 1719 1
  3785 2218 2196 1
  3786 2505 2483 1
  3787 2054 2031 1
  3788 3479 3460 1
  3789  231  212 1
  3790  694  672 1
  3791 2251 2229 1
  3792 3386 3363 1
@<TRIPOS>SUBSTRUCTURE
     1 GTP    15 RESIDUE           4 X     GTP     1 ROOT
     2   G    49 RESIDUE           4 X       G     2
     3   A    83 RESIDUE           4 X       A     2
     4   U   116 RESIDUE           4 X       U     2
     5   C   146 RESIDUE           4 X       C     2
     6   U   177 RESIDUE           4 X       U     2
     7   U   207 RESIDUE           4 X       U     2
     8   C   237 RESIDUE           4 X       C     2
     9   G   268 RESIDUE           4 X       G     2
    10   G   302 RESIDUE           4 X       G     2
    11   G   336 RESIDUE           4 X       G     2
    12   G   370 RESIDUE           4 X       G     2
    13   C   404 RESIDUE           4 X       C     2
    14   A   435 RESIDUE           4 X       A     2
    15   G   468 RESIDUE           4 X       G     2
    16   G   502 RESIDUE           4 X       G     2
    17   G   536 RESIDUE           4 X       G     2
    18   U   570 RESIDUE           4 X       U     2
    19   G   600 RESIDUE           4 X       G     2
    20   A   634 RESIDUE           4 X       A     2
    21   A   667 RESIDUE           4 X       A     2
    22   A   700 RESIDUE           4 X       A     2
    23   U   733 RESIDUE           4 X       U     2
    24   U   763 RESIDUE           4 X       U     2
    25   C   793 RESIDUE           4 X       C     2
    26   C   824 RESIDUE           4 X       C     2
    27   C   855 RESIDUE           4 X       C     2
    28   G   886 RESIDUE           4 X       G     2
    29   A   920 RESIDUE           4 X       A     2
    30   C   953 RESIDUE           4 X       C     2
    31   C   984 RESIDUE           4 X       C     2
    32   G  1015 RESIDUE           4 X       G     2
    33   G  1049 RESIDUE           4 X       G     2
    34   U  1083 RESIDUE           4 X       U     2
    35   G  1113 RESIDUE           4 X       G     2
    36   G  1147 RESIDUE           4 X       G     2
    37   U  1181 RESIDUE           4 X       U     2
    38   A  1211 RESIDUE           4 X       A     2
    39   U  1244 RESIDUE           4 X       U     2
    40   A  1274 RESIDUE           4 X       A     2
    41   G  1307 RESIDUE           4 X       G     2
    42   U  1341 RESIDUE           4 X       U     2
    43   C  1371 RESIDUE           4 X       C     2
    44   C  1402 RESIDUE           4 X       C     2
    45   A  1433 RESIDUE           4 X       A     2
    46   C  1466 RESIDUE           4 X       C     2
    47   G  1497 RESIDUE           4 X       G     2
    48   A  1531 RESIDUE           4 X       A     2
    49   A  1564 RESIDUE           4 X       A     2
    50   A  1597 RESIDUE           4 X       A     2
    51   G  1630 RESIDUE           4 X       G     2
    52   U  1664 RESIDUE           4 X       U     2
    53   A  1694 RESIDUE           4 X       A     2
    54   G  1714 RESIDUE           4 X       G     2
    55   C  1748 RESIDUE           4 X       C     2
    56   U  1779 RESIDUE           4 X       U     2
    57   U  1809 RESIDUE           4 X       U     2
    58   U  1839 RESIDUE           4 X       U     2
    59   G  1869 RESIDUE           4 X       G     2
    60   A  1903 RESIDUE           4 X       A     2
    61   U  1936 RESIDUE           4 X       U     2
    62   U  1966 RESIDUE           4 X       U     2
    63   U  1996 RESIDUE           4 X       U     2
    64   G  2026 RESIDUE           4 X       G     2
    65   G  2060 RESIDUE           4 X       G     2
    66   U  2094 RESIDUE           4 X       U     2
    67   G  2124 RESIDUE           4 X       G     2
    68   A  2158 RESIDUE           4 X       A     2
    69   A  2191 RESIDUE           4 X       A     2
    70   A  2224 RESIDUE           4 X       A     2
    71   U  2257 RESIDUE           4 X       U     2
    72   U  2287 RESIDUE           4 X       U     2
    73   C  2317 RESIDUE           4 X       C     2
    74   C  2348 RESIDUE           4 X       C     2
    75   A  2379 RESIDUE           4 X       A     2
    76   A  2412 RESIDUE           4 X       A     2
    77   A  2445 RESIDUE           4 X       A     2
    78   A  2478 RESIDUE           4 X       A     2
    79   C  2511 RESIDUE           4 X       C     2
    80   C  2542 RESIDUE           4 X       C     2
    81   G  2573 RESIDUE           4 X       G     2
    82   A  2607 RESIDUE           4 X       A     2
    83   C  2640 RESIDUE           4 X       C     2
    84   A  2671 RESIDUE           4 X       A     2
    85   G  2704 RESIDUE           4 X       G     2
    86   U  2738 RESIDUE           4 X       U     2
    87   A  2768 RESIDUE           4 X       A     2
    88   G  2801 RESIDUE           4 X       G     2
    89   A  2835 RESIDUE           4 X       A     2
    90   G  2868 RESIDUE           4 X       G     2
    91   U  2902 RESIDUE           4 X       U     2
    92   C  2932 RESIDUE           4 X       C     2
    93   U  2963 RESIDUE           4 X       U     2
    94   G  2993 RESIDUE           4 X       G     2
    95   G  3027 RESIDUE           4 X       G     2
    96   A  3061 RESIDUE           4 X       A     2
    97   U  3094 RESIDUE           4 X       U     2
    98   G  3124 RESIDUE           4 X       G     2
    99   A  3158 RESIDUE           4 X       A     2
   100   G  3191 RESIDUE           4 X       G     2
   101   A  3225 RESIDUE           4 X       A     2
   102   G  3258 RESIDUE           4 X       G     2
   103   A  3292 RESIDUE           4 X       A     2
   104   A  3325 RESIDUE           4 X       A     2
   105   G  3358 RESIDUE           4 X       G     2
   106   A  3392 RESIDUE           4 X       A     2
   107   U  3425 RESIDUE           4 X       U     2
   108   U  3455 RESIDUE           4 X       U     2
   109 CCC  3488 RESIDUE           4 X     CCC     1
