@<TRIPOS>MOLECULE
4FEL_ligand.pdb
14 15 1 0 0
SMALL
AMBER ff14SB


@<TRIPOS>ATOM
      1 N1         11.9570   11.6220    9.1600 N.am      1 HPA   -0.4964
      2 C2         11.5210   12.9100    9.3670 C.2       1 HPA    0.4978
      3 N3         11.0620   13.6720    8.3650 N.2       1 HPA   -0.6061
      4 C4         11.0800   13.0390    7.1650 C.ar      1 HPA    0.0648
      5 C5         11.5050   11.7630    6.9040 C.ar      1 HPA    0.2048
      6 C6         11.9870   10.9550    7.9500 C.2       1 HPA    0.6350
      7 O6         12.4000    9.8060    7.9240 O.2       1 HPA   -0.5925
      8 N7         11.3600   11.5120    5.5780 N.ar      1 HPA   -0.5870
      9 C8         10.8430   12.6250    5.0340 C.ar      1 HPA    0.3974
     10 N9         10.6530   13.5970    5.9820 N.ar      1 HPA   -0.3039
     11 H1         12.2866   11.1155    9.9693 H         1 HPA    0.3395
     12 H2         11.5494   13.3190   10.3662 H         1 HPA    0.0568
     13 H8         10.6075   12.7398    3.9863 H         1 HPA    0.0701
     14 H9         10.2793   14.5248    5.8419 H         1 HPA    0.3187
@<TRIPOS>BOND
     1    1    2 1
     2    1    6 am
     3    2    3 2
     4    3    4 1
     5    4    5 ar
     6    4   10 ar
     7    5    6 1
     8    5    8 ar
     9    6    7 2
    10    8    9 ar
    11    9   10 ar
    12   11    1 1
    13   12    2 1
    14   13    9 1
    15   14   10 1
@<TRIPOS>SUBSTRUCTURE
     1 HPA     1 RESIDUE           4 B     HPA     0 ROOT
