@<TRIPOS>MOLECULE
4FEL_RNA.pdb
2149 2317 67 0 0
NUCLEIC_ACID
AMBER ff14SB


@<TRIPOS>ATOM
      1 O5'         3.3840    4.0440   19.9450 O.3       1   G   -0.6223
      2 C5'         4.4310    4.2900   20.8890 C.3       1   G    0.0558
      3 C4'         4.6690    3.1160   21.8100 C.3       1   G    0.1065
      4 O4'         3.3920    2.6830   22.3550 O.3       1   G   -0.3548
      5 C3'         5.2600    1.8760   21.1510 C.3       1   G    0.2022
      6 O3'         6.6810    1.9060   21.1940 O.3       1   G   -0.5246
      7 C2'         4.7120    0.7530   22.0230 C.3       1   G    0.0670
      8 O2'         5.4280    0.5730   23.2290 O.3       1   G   -0.6139
      9 C1'         3.3060    1.2700   22.3150 C.3       1   G    0.0191
     10 N9          2.3530    0.8980   21.2760 N.ar      1   G    0.0492
     11 C8          1.5310    1.7320   20.5560 C.ar      1   G    0.1374
     12 N7          0.7780    1.0950   19.7010 N.ar      1   G   -0.5709
     13 C5          1.1250   -0.2380   19.8670 C.ar      1   G    0.1744
     14 C6          0.6390   -1.4020   19.2200 C.2       1   G    0.4770
     15 O6         -0.2290   -1.4910   18.3430 O.2       1   G   -0.5597
     16 N1          1.2700   -2.5500   19.6910 N.am      1   G   -0.4787
     17 C2          2.2430   -2.5760   20.6610 C.2       1   G    0.7657
     18 N2          2.7320   -3.7810   20.9780 N.pl3     1   G   -0.9672
     19 N3          2.7010   -1.4990   21.2740 N.2       1   G   -0.6323
     20 C4          2.1020   -0.3740   20.8310 C.ar      1   G    0.1222
     21 H5'         5.3514    4.4980   20.3434 H         1   G    0.0679
     22 H5''        4.1698    5.1624   21.4879 H         1   G    0.0679
     23 H4'         5.3182    3.4295   22.6275 H         1   G    0.1174
     24 H3'         4.9059    1.7771   20.1249 H         1   G    0.0615
     25 H2'         4.6675   -0.1803   21.4616 H         1   G    0.0972
     26 H1'         2.9666    0.8930   23.2798 H         1   G    0.2006
     27 H8          1.5103    2.8041   20.6845 H         1   G    0.1640
     28 H1          0.9907   -3.4331   19.2882 H         1   G    0.3424
     29 H21         2.3837   -4.6061   20.5112 H         1   G    0.4364
     30 H22         3.4493   -3.8651   21.6840 H         1   G    0.4364
     31 HO5'        3.4387    4.6841   19.2317 H         1   G    0.4295
     32 HO2'        6.3097    0.2480   23.0327 H         1   G    0.4186
     33 P           7.5240    1.2560   19.9920 P.3       2   G    1.1662
     34 OP1         8.8950    0.9660   20.4860 O.co2     2   G   -0.7760
     35 OP2         7.3410    2.1240   18.7980 O.co2     2   G   -0.7760
     36 O5'         6.7830   -0.1260   19.7060 O.3       2   G   -0.4989
     37 C5'         7.0920   -1.2920   20.4640 C.3       2   G    0.0558
     38 C4'         6.7540   -2.5340   19.6740 C.3       2   G    0.1065
     39 O4'         5.3110   -2.7070   19.6460 O.3       2   G   -0.3548
     40 C3'         7.1470   -2.5070   18.2060 C.3       2   G    0.2022
     41 O3'         8.5060   -2.8880   18.0300 O.3       2   G   -0.5246
     42 C2'         6.2040   -3.5450   17.6130 C.3       2   G    0.0670
     43 O2'         6.6450   -4.8690   17.8340 O.3       2   G   -0.6139
     44 C1'         4.9230   -3.2770   18.4050 C.3       2   G    0.0191
     45 N9          4.0200   -2.3460   17.7340 N.ar      2   G    0.0492
     46 C8          3.9710   -0.9810   17.8880 C.ar      2   G    0.1374
     47 N7          3.0590   -0.4140   17.1450 N.ar      2   G   -0.5709
     48 C5          2.4680   -1.4680   16.4610 C.ar      2   G    0.1744
     49 C6          1.4100   -1.4720   15.5100 C.2       2   G    0.4770
     50 O6          0.7610   -0.5120   15.0690 O.2       2   G   -0.5597
     51 N1          1.1260   -2.7610   15.0690 N.am      2   G   -0.4787
     52 C2          1.7720   -3.8980   15.4850 C.2       2   G    0.7657
     53 N2          1.3550   -5.0460   14.9340 N.pl3     2   G   -0.9672
     54 N3          2.7550   -3.9100   16.3720 N.2       2   G   -0.6323
     55 C4          3.0490   -2.6680   16.8150 C.ar      2   G    0.1222
     56 H5'         6.5131   -1.2845   21.3875 H         2   G    0.0679
     57 H5''        8.1552   -1.2952   20.7043 H         2   G    0.0679
     58 H4'         7.2108   -3.4002   20.1527 H         2   G    0.1174
     59 H3'         6.9616   -1.5237   17.7737 H         2   G    0.0615
     60 H2'         6.0468   -3.3621   16.5500 H         2   G    0.0972
     61 H1'         4.4045   -4.2187   18.5850 H         2   G    0.2006
     62 H8          4.6203   -0.4335   18.5552 H         2   G    0.1640
     63 H1          0.3865   -2.8681   14.3895 H         2   G    0.3424
     64 H21         0.6060   -5.0382   14.2565 H         2   G    0.4364
     65 H22         1.7897   -5.9192   15.1962 H         2   G    0.4364
     66 HO2'        6.8018   -5.2996   16.9904 H         2   G    0.4186
     67 P           9.3030   -2.4090   16.7170 P.3       3   A    1.1662
     68 OP1        10.7380   -2.7570   16.8820 O.co2     3   A   -0.7760
     69 OP2         8.9150   -1.0010   16.4440 O.co2     3   A   -0.7760
     70 O5'         8.7010   -3.3130   15.5500 O.3       3   A   -0.4989
     71 C5'         8.6320   -4.7270   15.6870 C.3       3   A    0.0558
     72 C4'         7.7160   -5.3080   14.6390 C.3       3   A    0.1065
     73 O4'         6.3350   -4.9760   14.9490 O.3       3   A   -0.3548
     74 C3'         7.9070   -4.7640   13.2340 C.3       3   A    0.2022
     75 O3'         8.9840   -5.4320   12.5930 O.3       3   A   -0.5246
     76 C2'         6.5680   -5.1030   12.5900 C.3       3   A    0.0670
     77 O2'         6.4720   -6.4560   12.1960 O.3       3   A   -0.6139
     78 C1'         5.6010   -4.8280   13.7420 C.3       3   A    0.0394
     79 N9          5.0620   -3.4710   13.6950 N.ar      3   A   -0.0251
     80 C8          5.4740   -2.3700   14.4040 C.ar      3   A    0.2006
     81 N7          4.7990   -1.2800   14.1270 N.ar      3   A   -0.6073
     82 C5          3.8780   -1.6910   13.1750 C.ar      3   A    0.0515
     83 C6          2.8720   -1.0070   12.4730 C.ar      3   A    0.7009
     84 N6          2.6150    0.2930   12.6290 N.pl3     3   A   -0.9019
     85 N1          2.1280   -1.7120   11.5920 N.ar      3   A   -0.7615
     86 C2          2.3860   -3.0140   11.4350 C.ar      3   A    0.5875
     87 N3          3.3030   -3.7700   12.0350 N.ar      3   A   -0.6997
     88 C4          4.0250   -3.0400   12.9030 C.ar      3   A    0.3053
     89 H5'         8.2488   -4.9744   16.6770 H         3   A    0.0679
     90 H5''        9.6295   -5.1504   15.5696 H         3   A    0.0679
     91 H4'         7.8301   -6.3919   14.6232 H         3   A    0.1174
     92 H3'         8.0705   -3.6865   13.2512 H         3   A    0.0615
     93 H2'         6.3651   -4.4403   11.7487 H         3   A    0.0972
     94 H1'         4.7843   -5.5494   13.7171 H         3   A    0.2007
     95 H8          6.2792   -2.3987   15.1232 H         3   A    0.1553
     96 H2          1.7609   -3.5263   10.7186 H         3   A    0.0473
     97 H61         1.6841    0.5622   12.3441 H         3   A    0.4115
     98 H62         3.2895    0.9479   12.9981 H         3   A    0.4115
     99 HO2'        7.0809   -6.6232   11.4729 H         3   A    0.4186
    100 P           9.9460   -4.6180   11.5960 P.3       4   C    1.1662
    101 OP1        11.2620   -5.2980   11.5530 O.co2     4   C   -0.7760
    102 OP2         9.8700   -3.1760   11.9630 O.co2     4   C   -0.7760
    103 O5'         9.2570   -4.8020   10.1750 O.3       4   C   -0.4989
    104 C5'         8.4500   -3.7740    9.6390 C.3       4   C    0.0558
    105 C4'         7.4790   -4.3310    8.6330 C.3       4   C    0.1065
    106 O4'         6.1580   -4.3860    9.2430 O.3       4   C   -0.3548
    107 C3'         7.3380   -3.4240    7.4200 C.3       4   C    0.2022
    108 O3'         8.1510   -3.8830    6.3560 O.3       4   C   -0.5246
    109 C2'         5.8460   -3.4620    7.1100 C.3       4   C    0.0670
    110 O2'         5.4450   -4.5440    6.2970 O.3       4   C   -0.6139
    111 C1'         5.2600   -3.5710    8.5130 C.3       4   C    0.0066
    112 N1          5.1890   -2.2570    9.1700 N.am      4   C   -0.0484
    113 C2          4.1620   -1.3930    8.8090 C.2       4   C    0.7538
    114 O2          3.3250   -1.7790    7.9750 O.2       4   C   -0.6252
    115 N3          4.0980   -0.1680    9.3770 N.2       4   C   -0.7584
    116 C4          5.0060    0.1950   10.2870 C.2       4   C    0.8185
    117 N4          4.9000    1.4080   10.8280 N.pl3     4   C   -0.9530
    118 C5          6.0610   -0.6750   10.6840 C.2       4   C   -0.5215
    119 C6          6.1130   -1.8800   10.1060 C.2       4   C    0.0053
    120 H5'         9.0872   -3.0365    9.1510 H         4   C    0.0679
    121 H5''        7.8963   -3.2936   10.4457 H         4   C    0.0679
    122 H4'         7.7909   -5.3281    8.3221 H         4   C    0.1174
    123 H3'         7.6286   -2.4084    7.6887 H         4   C    0.0615
    124 H2'         5.5389   -2.5215    6.6526 H         4   C    0.0972
    125 H1'         4.2727   -4.0315    8.4773 H         4   C    0.2029
    126 H5          6.7898   -0.3740   11.4220 H         4   C    0.1928
    127 H6          6.8983   -2.5677   10.3830 H         4   C    0.1958
    128 H41         4.1501    2.0229   10.5460 H         4   C    0.4234
    129 H42         5.5696    1.7125   11.5201 H         4   C    0.4234
    130 HO2'        4.4876   -4.5535    6.2267 H         4   C    0.4186
    131 P           8.9980   -2.8210    5.5110 P.3       5   A    1.1662
    132 OP1         9.7540   -3.5450    4.4580 O.co2     5   A   -0.7760
    133 OP2         9.7200   -1.9410    6.4680 O.co2     5   A   -0.7760
    134 O5'         7.8700   -1.9520    4.7990 O.3       5   A   -0.4989
    135 C5'         6.9360   -2.5690    3.9230 C.3       5   A    0.0558
    136 C4'         5.9240   -1.5590    3.4520 C.3       5   A    0.1065
    137 O4'         5.0560   -1.1850    4.5550 O.3       5   A   -0.3548
    138 C3'         6.5080   -0.2300    3.0110 C.3       5   A    0.2022
    139 O3'         7.0100   -0.3210    1.6880 O.3       5   A   -0.5246
    140 C2'         5.2830    0.6670    3.0940 C.3       5   A    0.0670
    141 O2'         4.3960    0.4560    2.0120 O.3       5   A   -0.6139
    142 C1'         4.6520    0.1670    4.3940 C.3       5   A    0.0394
    143 N9          5.0770    0.9260    5.5720 N.ar      5   A   -0.0251
    144 C8          6.0140    0.5820    6.5140 C.ar      5   A    0.2006
    145 N7          6.1430    1.4640    7.4770 N.ar      5   A   -0.6073
    146 C5          5.2330    2.4580    7.1420 C.ar      5   A    0.0515
    147 C6          4.8720    3.6610    7.7690 C.ar      5   A    0.7009
    148 N6          5.3980    4.0840    8.9180 N.pl3     5   A   -0.9019
    149 N1          3.9340    4.4240    7.1700 N.ar      5   A   -0.7615
    150 C2          3.3970    3.9970    6.0250 C.ar      5   A    0.5875
    151 N3          3.6470    2.8860    5.3420 N.ar      5   A   -0.6997
    152 C4          4.5830    2.1480    5.9630 C.ar      5   A    0.3053
    153 H5'         7.4649   -2.9778    3.0621 H         5   A    0.0679
    154 H5''        6.4246   -3.3750    4.4493 H         5   A    0.0679
    155 H4'         5.3287   -1.9847    2.6442 H         5   A    0.1174
    156 H3'         7.2834    0.1036    3.7006 H         5   A    0.0615
    157 H2'         5.5673    1.7164    3.1719 H         5   A    0.0972
    158 H1'         3.5663    0.2114    4.3085 H         5   A    0.2007
    159 H8          6.5913   -0.3296    6.4671 H         5   A    0.1553
    160 H2          2.6524    4.6485    5.5920 H         5   A    0.0473
    161 HO2'        4.3795    1.2371    1.4542 H         5   A    0.4186
    162 H61         4.8658    4.8433    9.3184 H         5   A    0.4115
    163 H62         6.2289    3.6924    9.3379 H         5   A    0.4115
    164 P           8.2400    0.6090    1.2380 P.3       6   U    1.1662
    165 OP1         8.6400    0.1930   -0.1260 O.co2     6   U   -0.7760
    166 OP2         9.2470    0.6180    2.3360 O.co2     6   U   -0.7760
    167 O5'         7.5890    2.0540    1.1090 O.3       6   U   -0.4989
    168 C5'         6.5510    2.2820    0.1640 C.3       6   U    0.0558
    169 C4'         5.9440    3.6440    0.3710 C.3       6   U    0.1065
    170 O4'         5.3040    3.7110    1.6730 O.3       6   U   -0.3548
    171 C3'         6.9360    4.7860    0.4300 C.3       6   U    0.2022
    172 O3'         7.3780    5.1190   -0.8720 O.3       6   U   -0.5246
    173 C2'         6.0920    5.8660    1.0910 C.3       6   U    0.0670
    174 O2'         5.1380    6.4600    0.2250 O.3       6   U   -0.6139
    175 C1'         5.3680    5.0440    2.1590 C.3       6   U    0.0674
    176 N1          6.0830    5.0320    3.4420 N.am      6   U    0.0418
    177 C2          5.8470    6.0760    4.3050 C.2       6   U    0.4687
    178 O2          5.1080    7.0030    4.0300 O.2       6   U   -0.5477
    179 N3          6.5130    6.0040    5.5020 N.am      6   U   -0.3549
    180 C4          7.3840    5.0140    5.9100 C.2       6   U    0.5952
    181 O4          7.8360    5.0450    7.0520 O.2       6   U   -0.5761
    182 C5          7.5980    3.9760    4.9460 C.2       6   U   -0.3635
    183 C6          6.9510    4.0200    3.7720 C.2       6   U   -0.1126
    184 H5'         6.9628    2.2216   -0.8434 H         6   U    0.0679
    185 H5''        5.7798    1.5212    0.2847 H         6   U    0.0679
    186 H4'         5.2079    3.8388   -0.4089 H         6   U    0.1174
    187 H3'         7.7826    4.5228    1.0640 H         6   U    0.0615
    188 H2'         6.7248    6.6257    1.5497 H         6   U    0.0972
    189 H1'         4.3598    5.4327    2.3026 H         6   U    0.1824
    190 H3          6.3483    6.7565    6.1552 H         6   U    0.3154
    191 H5          8.2757    3.1636    5.1632 H         6   U    0.1811
    192 H6          7.1193    3.2279    3.0574 H         6   U    0.2188
    193 HO2'        5.5915    6.9761   -0.4456 H         6   U    0.4186
    194 P           8.8610    5.6930   -1.0880 P.3       7   A    1.1662
    195 OP1         8.9760    6.0560   -2.5200 O.co2     7   A   -0.7760
    196 OP2         9.8340    4.7510   -0.4880 O.co2     7   A   -0.7760
    197 O5'         8.8650    7.0210   -0.2150 O.3       7   A   -0.4989
    198 C5'         8.2360    8.2020   -0.6850 C.3       7   A    0.0558
    199 C4'         8.4020    9.3100    0.3170 C.3       7   A    0.1065
    200 O4'         7.8340    8.8970    1.5850 O.3       7   A   -0.3548
    201 C3'         9.8280    9.6510    0.7190 C.3       7   A    0.2022
    202 O3'        10.4650   10.4480   -0.2750 O.3       7   A   -0.5246
    203 C2'         9.6030   10.4200    2.0220 C.3       7   A    0.0670
    204 O2'         9.2830   11.7840    1.8620 O.3       7   A   -0.6139
    205 C1'         8.3820    9.7010    2.6100 C.3       7   A    0.0394
    206 N9          8.7670    8.8620    3.7410 N.ar      7   A   -0.0251
    207 C8          9.3020    7.6030    3.7420 C.ar      7   A    0.2006
    208 N7          9.6420    7.1720    4.9350 N.ar      7   A   -0.6073
    209 C5          9.2820    8.2110    5.7770 C.ar      7   A    0.0515
    210 C6          9.3840    8.3750    7.1700 C.ar      7   A    0.7009
    211 N6          9.9210    7.4600    7.9820 N.pl3     7   A   -0.9019
    212 N1          8.9150    9.5290    7.7020 N.ar      7   A   -0.7615
    213 C2          8.3910   10.4560    6.8740 C.ar      7   A    0.5875
    214 N3          8.2540   10.4130    5.5460 N.ar      7   A   -0.6997
    215 C4          8.7200    9.2500    5.0590 C.ar      7   A    0.3053
    216 H5'         8.6896    8.5001   -1.6302 H         7   A    0.0679
    217 H5''        7.1742    8.0095   -0.8384 H         7   A    0.0679
    218 H4'         7.8952   10.2071   -0.0387 H         7   A    0.1174
    219 H3'        10.4005    8.7423    0.9052 H         7   A    0.0615
    220 H2'        10.4632   10.3074    2.6819 H         7   A    0.0972
    221 H1'         7.6446   10.4358    2.9331 H         7   A    0.2007
    222 H8          9.4328    7.0173    2.8441 H         7   A    0.1553
    223 H2          8.0330   11.3568    7.3503 H         7   A    0.0473
    224 HO2'        8.9151   12.1250    2.6805 H         7   A    0.4186
    225 H61         9.5064    7.5873    8.8941 H         7   A    0.4115
    226 H62        10.6133    6.7690    7.7304 H         7   A    0.4115
    227 P          11.7500    9.8730   -1.0470 P.3       8   U    1.1662
    228 OP1        12.0630   10.8330   -2.1350 O.co2     8   U   -0.7760
    229 OP2        11.5070    8.4380   -1.3750 O.co2     8   U   -0.7760
    230 O5'        12.9000    9.9760    0.0530 O.3       8   U   -0.4989
    231 C5'        14.0560    9.1360    0.0220 C.3       8   U    0.0558
    232 C4'        14.5890    8.9430    1.4260 C.3       8   U    0.1065
    233 O4'        14.9540   10.2530    1.9540 O.3       8   U   -0.3548
    234 C3'        13.5630    8.3660    2.4000 C.3       8   U    0.2022
    235 O3'        14.1750    7.5850    3.4280 O.3       8   U   -0.5246
    236 C2'        12.9510    9.6260    3.0050 C.3       8   U    0.0670
    237 O2'        12.3540    9.4050    4.2670 O.3       8   U   -0.6139
    238 C1'        14.1770   10.5420    3.1040 C.3       8   U    0.0674
    239 N1         13.8240   11.9700    3.0840 N.am      8   U    0.0418
    240 C2         14.0600   12.7180    4.2310 C.2       8   U    0.4687
    241 O2         14.6140   12.2630    5.2230 O.2       8   U   -0.5477
    242 N3         13.6310   14.0150    4.1700 N.am      8   U   -0.3549
    243 C4         13.0210   14.6410    3.1020 C.2       8   U    0.5952
    244 O4         12.6250   15.7950    3.2260 O.2       8   U   -0.5761
    245 C5         12.8560   13.8210    1.9480 C.2       8   U   -0.3635
    246 C6         13.2540   12.5450    1.9780 C.2       8   U   -0.1126
    247 H5'        13.7877    8.1671   -0.3992 H         8   U    0.0679
    248 H5''       14.8243    9.5997   -0.5966 H         8   U    0.0679
    249 H4'        15.4694    8.3009    1.3985 H         8   U    0.1174
    250 H3'        12.8087    7.7852    1.8692 H         8   U    0.0615
    251 H2'        12.2212   10.0531    2.3172 H         8   U    0.0972
    252 H1'        14.7442   10.3103    4.0055 H         8   U    0.1824
    253 H3         13.7765   14.5762    4.9970 H         8   U    0.3154
    254 H5         12.4110   14.2289    1.0525 H         8   U    0.1811
    255 H6         13.1206   11.9412    1.0925 H         8   U    0.2188
    256 HO2'       11.5927    8.8292    4.1649 H         8   U    0.4186
    257 P          14.6160    6.0590    3.1540 P.3       9   A    1.1662
    258 OP1        13.9050    5.5190    1.9670 O.co2     9   A   -0.7760
    259 OP2        14.5060    5.3530    4.4610 O.co2     9   A   -0.7760
    260 O5'        16.1550    6.1580    2.7770 O.3       9   A   -0.4989
    261 C5'        17.0560    6.8700    3.6160 C.3       9   A    0.0558
    262 C4'        18.2980    7.2270    2.8450 C.3       9   A    0.1065
    263 O4'        17.9050    7.8170    1.5840 O.3       9   A   -0.3548
    264 C3'        19.1800    8.2850    3.4850 C.3       9   A    0.2022
    265 O3'        20.0890    7.6640    4.3900 O.3       9   A   -0.5246
    266 C2'        19.9450    8.8330    2.2790 C.3       9   A    0.0670
    267 O2'        21.0680    8.0320    1.9880 O.3       9   A   -0.6139
    268 C1'        18.9110    8.7040    1.1510 C.3       9   A    0.0394
    269 N9         18.2650    9.9540    0.7560 N.ar      9   A   -0.0251
    270 C8         17.9010   10.3290   -0.5110 C.ar      9   A    0.2006
    271 N7         17.3450   11.5120   -0.5710 N.ar      9   A   -0.6073
    272 C5         17.3340   11.9430    0.7460 C.ar      9   A    0.0515
    273 C6         16.8740   13.1230    1.3470 C.ar      9   A    0.7009
    274 N6         16.2960   14.1170    0.6720 N.pl3     9   A   -0.9019
    275 N1         17.0290   13.2530    2.6860 N.ar      9   A   -0.7615
    276 C2         17.5980   12.2460    3.3590 C.ar      9   A    0.5875
    277 N3         18.0610   11.0810    2.9050 N.ar      9   A   -0.6997
    278 C4         17.9010   10.9940    1.5740 C.ar      9   A    0.3053
    279 H5'        17.3262    6.2462    4.4681 H         9   A    0.0679
    280 H5''       16.5760    7.7816    3.9720 H         9   A    0.0679
    281 H4'        18.8839    6.3267    2.6598 H         9   A    0.1174
    282 H3'        18.5899    9.0599    3.9743 H         9   A    0.0615
    283 H2'        20.2320    9.8731    2.4336 H         9   A    0.0972
    284 H1'        19.4011    8.2744    0.2773 H         9   A    0.2007
    285 H8         18.0584    9.7061   -1.3791 H         9   A    0.1553
    286 H2         17.6964   12.3990    4.4236 H         9   A    0.0473
    287 H61        16.2316   15.0393    1.0786 H         9   A    0.4115
    288 H62        15.7397   14.2252   -0.1640 H         9   A    0.4115
    289 HO2'       21.7124    8.1147    2.6947 H         9   A    0.4186
    290 P          19.8950    7.8470    5.9750 P.3      10   A    1.1662
    291 OP1        20.8470    6.8770    6.5990 O.co2    10   A   -0.7760
    292 OP2        18.4480    7.7650    6.2980 O.co2    10   A   -0.7760
    293 O5'        20.4160    9.3270    6.2810 O.3      10   A   -0.4989
    294 C5'        19.6450   10.4740    5.9280 C.3      10   A    0.0558
    295 C4'        19.3730   11.3230    7.1480 C.3      10   A    0.1065
    296 O4'        18.4280   10.6380    8.0010 O.3      10   A   -0.3548
    297 C3'        20.5460   11.5970    8.0770 C.3      10   A    0.2022
    298 O3'        21.3410   12.6830    7.6130 O.3      10   A   -0.5246
    299 C2'        19.8300   11.9900    9.3650 C.3      10   A    0.0670
    300 O2'        19.3830   13.3310    9.3810 O.3      10   A   -0.6139
    301 C1'        18.6120   11.0630    9.3360 C.3      10   A    0.0394
    302 N9         18.7570    9.8740   10.1640 N.ar     10   A   -0.0251
    303 C8         18.8060    8.5670    9.7510 C.ar     10   A    0.2006
    304 N7         18.8730    7.7050   10.7340 N.ar     10   A   -0.6073
    305 C5         18.8850    8.4970   11.8680 C.ar     10   A    0.0515
    306 C6         18.9330    8.1800   13.2260 C.ar     10   A    0.7009
    307 N6         18.9770    6.9280   13.6830 N.pl3    10   A   -0.9019
    308 N1         18.9300    9.1940   14.1060 N.ar     10   A   -0.7615
    309 C2         18.8690   10.4530   13.6320 C.ar     10   A    0.5875
    310 N3         18.8150   10.8770   12.3740 N.ar     10   A   -0.6997
    311 C4         18.8270    9.8370   11.5330 C.ar     10   A    0.3053
    312 H5'        20.1951   11.0645    5.1953 H        10   A    0.0679
    313 H5''       18.6982   10.1524    5.4943 H        10   A    0.0679
    314 H4'        18.9418   12.2725    6.8309 H        10   A    0.1174
    315 H3'        21.1503   10.7014    8.2212 H        10   A    0.0615
    316 H2'        20.4544   11.7805   10.2335 H        10   A    0.0972
    317 H1'        17.7317   11.6187    9.6591 H        10   A    0.2007
    318 H8         18.7907    8.2759    8.7111 H        10   A    0.1553
    319 H2         18.8631   11.2297   14.3824 H        10   A    0.0473
    320 H61        18.9783    6.1535   13.0347 H        10   A    0.4115
    321 H62        19.0091    6.7542   14.6774 H        10   A    0.4115
    322 HO2'       19.0459   13.5455   10.2539 H        10   A    0.4186
    323 P          22.8570   12.4230    7.1420 P.3      11   A    1.1662
    324 OP1        23.4110   11.2520    7.8650 O.co2    11   A   -0.7760
    325 OP2        23.5610   13.7210    7.1970 O.co2    11   A   -0.7760
    326 O5'        22.7020   12.0210    5.6170 O.3      11   A   -0.4989
    327 C5'        22.7840   13.0160    4.6090 C.3      11   A    0.0558
    328 C4'        22.4660   12.4150    3.2680 C.3      11   A    0.1065
    329 O4'        21.0350   12.5060    3.0060 O.3      11   A   -0.3548
    330 C3'        23.0880   13.1410    2.0900 C.3      11   A    0.2022
    331 O3'        24.4390   12.7280    1.9100 O.3      11   A   -0.5246
    332 C2'        22.2040   12.6540    0.9550 C.3      11   A    0.0670
    333 O2'        22.5130   11.3270    0.5830 O.3      11   A   -0.6139
    334 C1'        20.8240   12.7120    1.6150 C.3      11   A    0.0394
    335 N9         20.1850   14.0140    1.4110 N.ar     11   A   -0.0251
    336 C8         19.9460   15.0280    2.3120 C.ar     11   A    0.2006
    337 N7         19.3910   16.0890    1.7740 N.ar     11   A   -0.6073
    338 C5         19.2540   15.7490    0.4340 C.ar     11   A    0.0515
    339 C6         18.7340   16.4460   -0.6730 C.ar     11   A    0.7009
    340 N6         18.2670   17.6970   -0.6200 N.pl3    11   A   -0.9019
    341 N1         18.7170   15.8070   -1.8580 N.ar     11   A   -0.7615
    342 C2         19.2040   14.5670   -1.9260 C.ar     11   A    0.5875
    343 N3         19.7280   13.8170   -0.9670 N.ar     11   A   -0.6997
    344 C4         19.7200   14.4730    0.2030 C.ar     11   A    0.3053
    345 H5'        22.0703   13.8105    4.8270 H        11   A    0.0679
    346 H5''       23.7921   13.4301    4.5902 H        11   A    0.0679
    347 H4'        22.7732   11.3693    3.2551 H        11   A    0.1174
    348 H3'        23.0177   14.2221    2.2100 H        11   A    0.0615
    349 H2'        22.2586   13.3255    0.0981 H        11   A    0.0972
    350 H1'        20.1890   11.9212    1.2157 H        11   A    0.2007
    351 H8         20.1918   14.9569    3.3612 H        11   A    0.1553
    352 H2         19.1658   14.1082   -2.9030 H        11   A    0.0473
    353 H61        18.4792   18.4692   -0.0045 H        11   A    0.4115
    354 H62        17.5751   17.9092   -1.3245 H        11   A    0.4115
    355 HO2'       23.3796   11.3033    0.1707 H        11   A    0.4186
    356 P          25.5960   13.8320    1.7490 P.3      12   C    1.1662
    357 OP1        26.8380   13.1260    1.3480 O.co2    12   C   -0.7760
    358 OP2        25.5790   14.6800    2.9770 O.co2    12   C   -0.7760
    359 O5'        25.1390   14.7390    0.5240 O.3      12   C   -0.4989
    360 C5'        24.9330   14.1800   -0.7700 C.3      12   C    0.0558
    361 C4'        24.2870   15.2010   -1.6700 C.3      12   C    0.1065
    362 O4'        22.9270   15.4530   -1.2230 O.3      12   C   -0.3548
    363 C3'        24.9240   16.5830   -1.6260 C.3      12   C    0.2022
    364 O3'        26.0690   16.6120   -2.4580 O.3      12   C   -0.5246
    365 C2'        23.7920   17.4440   -2.1580 C.3      12   C    0.0670
    366 O2'        23.6110   17.3410   -3.5550 O.3      12   C   -0.6139
    367 C1'        22.6000   16.8190   -1.4280 C.3      12   C    0.0066
    368 N1         22.3840   17.4460   -0.1150 N.am     12   C   -0.0484
    369 C2         21.7700   18.6950   -0.0690 C.2      12   C    0.7538
    370 O2         21.4510   19.2380   -1.1250 O.2      12   C   -0.6252
    371 N3         21.5480   19.2840    1.1190 N.2      12   C   -0.7584
    372 C4         21.9170   18.6740    2.2440 C.2      12   C    0.8185
    373 N4         21.6510   19.2930    3.4010 N.pl3    12   C   -0.9530
    374 C5         22.5640   17.4020    2.2350 C.2      12   C   -0.5215
    375 C6         22.7750   16.8260    1.0400 C.2      12   C    0.0053
    376 H5'        25.8926   13.8814   -1.1920 H        12   C    0.0679
    377 H5''       24.2854   13.3070   -0.6888 H        12   C    0.0679
    378 H4'        24.2755   14.8331   -2.6960 H        12   C    0.1174
    379 H3'        25.1783   16.8623   -0.6035 H        12   C    0.0615
    380 H2'        23.9250   18.4843   -1.8610 H        12   C    0.0972
    381 H1'        21.7001   16.9028   -2.0372 H        12   C    0.2029
    382 H5         22.8716   16.9218    3.1522 H        12   C    0.1928
    383 H6         23.2591   15.8619    0.9905 H        12   C    0.1958
    384 H41        21.1896   20.1915    3.3986 H        12   C    0.4234
    385 H42        21.9117   18.8615    4.2762 H        12   C    0.4234
    386 HO2'       22.8082   17.8025   -3.8083 H        12   C    0.4186
    387 P          27.2740   17.6100   -2.1230 P.3      13   G    1.1662
    388 OP1        28.3620   17.2680   -3.0670 O.co2    13   G   -0.7760
    389 OP2        27.5440   17.5980   -0.6590 O.co2    13   G   -0.7760
    390 O5'        26.6710   19.0430   -2.4880 O.3      13   G   -0.4989
    391 C5'        26.4040   19.4040   -3.8430 C.3      13   G    0.0558
    392 C4'        26.0350   20.8660   -3.9250 C.3      13   G    0.1065
    393 O4'        24.7590   21.0900   -3.2690 O.3      13   G   -0.3548
    394 C3'        26.9680   21.7850   -3.1620 C.3      13   G    0.2022
    395 O3'        28.1370   22.0380   -3.9200 O.3      13   G   -0.5246
    396 C2'        26.1030   23.0230   -2.9950 C.3      13   G    0.0670
    397 O2'        25.9860   23.7850   -4.1780 O.3      13   G   -0.6139
    398 C1'        24.7490   22.3910   -2.6930 C.3      13   G    0.0191
    399 N9         24.5370   22.2550   -1.2600 N.ar     13   G    0.0492
    400 C8         24.6850   21.1210   -0.5070 C.ar     13   G    0.1374
    401 N7         24.4100   21.3110    0.7560 N.ar     13   G   -0.5709
    402 C5         24.0540   22.6450    0.8320 C.ar     13   G    0.1744
    403 C6         23.6300   23.4120    1.9360 C.2      13   G    0.4770
    404 O6         23.4480   23.0410    3.0960 O.2      13   G   -0.5597
    405 N1         23.3900   24.7410    1.5790 N.am     13   G   -0.4787
    406 C2         23.5200   25.2470    0.3080 C.2      13   G    0.7657
    407 N2         23.2450   26.5440    0.1500 N.pl3    13   G   -0.9672
    408 N3         23.8930   24.5260   -0.7370 N.2      13   G   -0.6323
    409 C4         24.1420   23.2460   -0.4030 C.ar     13   G    0.1222
    410 H5'        25.5779   18.8016   -4.2208 H        13   G    0.0679
    411 H5''       27.2919   19.2204   -4.4480 H        13   G    0.0679
    412 H4'        25.9769   21.1772   -4.9680 H        13   G    0.1174
    413 H3'        27.2221   21.3580   -2.1918 H        13   G    0.0615
    414 H2'        26.4474   23.6363   -2.1623 H        13   G    0.0972
    415 H1'        23.9511   22.9886   -3.1337 H        13   G    0.2006
    416 H8         24.9961   20.1702   -0.9140 H        13   G    0.1640
    417 H1         23.0997   25.3765    2.3084 H        13   G    0.3424
    418 H21        22.9590   27.0999    0.9433 H        13   G    0.4364
    419 H22        23.3230   26.9692   -0.7628 H        13   G    0.4364
    420 HO2'       26.8316   24.1907   -4.3828 H        13   G    0.4186
    421 P          29.4510   22.5700   -3.1890 P.3      14   C    1.1662
    422 OP1        30.4540   22.9170   -4.2360 O.co2    14   C   -0.7760
    423 OP2        29.8240   21.6250   -2.0910 O.co2    14   C   -0.7760
    424 O5'        28.8810   23.9240   -2.5750 O.3      14   C   -0.4989
    425 C5'        29.4370   24.5300   -1.4410 C.3      14   C    0.0558
    426 C4'        28.7490   25.8520   -1.2120 C.3      14   C    0.1065
    427 O4'        27.3440   25.6450   -0.9030 O.3      14   C   -0.3548
    428 C3'        29.2640   26.6450   -0.0400 C.3      14   C    0.2022
    429 O3'        30.4250   27.3300   -0.4420 O.3      14   C   -0.5246
    430 C2'        28.0760   27.5580    0.2290 C.3      14   C    0.0670
    431 O2'        27.8730   28.5200   -0.7910 O.3      14   C   -0.6139
    432 C1'        26.9380   26.5450    0.1260 C.3      14   C    0.0066
    433 N1         26.7270   25.7820    1.3740 N.am     14   C   -0.0484
    434 C2         26.1540   26.4420    2.4670 C.2      14   C    0.7538
    435 O2         25.8230   27.6290    2.3390 O.2      14   C   -0.6252
    436 N3         25.9760   25.7650    3.6360 N.2      14   C   -0.7584
    437 C4         26.3490   24.4830    3.7290 C.2      14   C    0.8185
    438 N4         26.1880   23.8630    4.9070 N.pl3    14   C   -0.9530
    439 C5         26.9110   23.7810    2.6250 C.2      14   C   -0.5215
    440 C6         27.0820   24.4630    1.4750 C.2      14   C    0.0053
    441 H5'        29.2923   23.8863   -0.5733 H        14   C    0.0679
    442 H5''       30.5026   24.6951   -1.6001 H        14   C    0.0679
    443 H4'        28.8300   26.4571   -2.1150 H        14   C    0.1174
    444 H3'        29.4647   25.9987    0.8144 H        14   C    0.0615
    445 H2'        28.1277   28.0151    1.2172 H        14   C    0.0972
    446 H1'        26.0157   27.0491   -0.1627 H        14   C    0.2029
    447 H5         27.1899   22.7408    2.7060 H        14   C    0.1928
    448 H6         27.5063   23.9606    0.6183 H        14   C    0.1958
    449 H41        25.7922   24.3624    5.6906 H        14   C    0.4234
    450 H42        26.4625   22.8966    5.0107 H        14   C    0.4234
    451 HO2'       27.0246   28.9501   -0.6610 H        14   C    0.4186
    452 P          31.4930   27.7710    0.6570 P.3      15   G    1.1662
    453 OP1        32.6920   28.2840   -0.0380 O.co2    15   G   -0.7760
    454 OP2        31.6460   26.6950    1.6650 O.co2    15   G   -0.7760
    455 O5'        30.7480   28.9620    1.3990 O.3      15   G   -0.4989
    456 C5'        30.4650   30.1940    0.7500 C.3      15   G    0.0558
    457 C4'        29.7880   31.1220    1.7200 C.3      15   G    0.1065
    458 O4'        28.5420   30.5190    2.1810 O.3      15   G   -0.3548
    459 C3'        30.5770   31.3500    2.9940 C.3      15   G    0.2022
    460 O3'        31.5500   32.3690    2.7750 O.3      15   G   -0.5246
    461 C2'        29.4780   31.7800    3.9540 C.3      15   G    0.0670
    462 O2'        29.0330   33.1050    3.7270 O.3      15   G   -0.6139
    463 C1'        28.3640   30.8070    3.5620 C.3      15   G    0.0191
    464 N9         28.4090   29.5480    4.3020 N.ar     15   G    0.0492
    465 C8         28.8520   28.3310    3.8600 C.ar     15   G    0.1374
    466 N7         28.7330   27.3870    4.7570 N.ar     15   G   -0.5709
    467 C5         28.1800   28.0320    5.8560 C.ar     15   G    0.1744
    468 C6         27.8100   27.5240    7.1400 C.2      15   G    0.4770
    469 O6         27.8930   26.3670    7.5620 O.2      15   G   -0.5597
    470 N1         27.3030   28.5240    7.9550 N.am     15   G   -0.4787
    471 C2         27.1690   29.8440    7.5950 C.2      15   G    0.7657
    472 N2         26.6740   30.6750    8.5340 N.pl3    15   G   -0.9672
    473 N3         27.5030   30.3260    6.3990 N.2      15   G   -0.6323
    474 C4         27.9910   29.3660    5.5920 C.ar     15   G    0.1222
    475 H5'        31.3949   30.6449    0.4033 H        15   G    0.0679
    476 H5''       29.8080   30.0146   -0.1011 H        15   G    0.0679
    477 H4'        29.5810   32.0767    1.2365 H        15   G    0.1174
    478 H3'        31.0488   30.4268    3.3304 H        15   G    0.0615
    479 H2'        29.7809   31.6370    4.9913 H        15   G    0.0972
    480 H1'        27.3952   31.2832    3.7125 H        15   G    0.2006
    481 H8         29.2578   28.1672    2.8727 H        15   G    0.1640
    482 H1         27.0093   28.2627    8.8853 H        15   G    0.3424
    483 H21        26.4215   30.3160    9.4436 H        15   G    0.4364
    484 H22        26.5556   31.6566    8.3279 H        15   G    0.4364
    485 HO2'       29.7267   33.7222    3.9707 H        15   G    0.4186
    486 P          33.0230   32.2030    3.3700 P.3      16   U    1.1662
    487 OP1        33.8960   33.2520    2.7770 O.co2    16   U   -0.7760
    488 OP2        33.4440   30.7900    3.3180 O.co2    16   U   -0.7760
    489 O5'        32.8150   32.5560    4.9030 O.3      16   U   -0.4989
    490 C5'        32.5530   33.8910    5.3020 C.3      16   U    0.0558
    491 C4'        32.2190   33.9240    6.7650 C.3      16   U    0.1065
    492 O4'        30.9650   33.2190    6.9810 O.3      16   U   -0.3548
    493 C3'        33.1770   33.1910    7.6830 C.3      16   U    0.2022
    494 O3'        34.3690   33.9290    7.9320 O.3      16   U   -0.5246
    495 C2'        32.3050   33.0340    8.9180 C.3      16   U    0.0670
    496 O2'        32.1170   34.2630    9.6110 O.3      16   U   -0.6139
    497 C1'        30.9910   32.6080    8.2670 C.3      16   U    0.0674
    498 N1         30.9550   31.1510    8.0930 N.am     16   U    0.0418
    499 C2         30.6250   30.4000    9.1950 C.2      16   U    0.4687
    500 O2         30.3760   30.9050   10.2730 O.2      16   U   -0.5477
    501 N3         30.6220   29.0380    8.9930 N.am     16   U   -0.3549
    502 C4         30.9420   28.3780    7.8170 C.2      16   U    0.5952
    503 O4         30.9800   27.1430    7.7970 O.2      16   U   -0.5761
    504 C5         31.2720   29.2360    6.7180 C.2      16   U   -0.3635
    505 C6         31.2590   30.5590    6.8830 C.2      16   U   -0.1126
    506 H5'        33.4352   34.5041    5.1177 H        16   U    0.0679
    507 H5''       31.7126   34.2827    4.7290 H        16   U    0.0679
    508 H4'        32.1178   34.9584    7.0934 H        16   U    0.1174
    509 H3'        33.4205   32.2129    7.2682 H        16   U    0.0615
    510 H2'        32.6900   32.2589    9.5806 H        16   U    0.0972
    511 H1'        30.1431   32.9418    8.8651 H        16   U    0.1824
    512 H3         30.3604   28.4623    9.7806 H        16   U    0.3154
    513 H5         31.5305   28.8123    5.7588 H        16   U    0.1811
    514 H6         31.4949   31.1908    6.0394 H        16   U    0.2188
    515 HO2'       32.2255   34.1191   10.5539 H        16   U    0.4186
    516 P          35.7600   33.1500    8.2080 P.3      17   G    1.1662
    517 OP1        36.8520   34.1480    8.1430 O.co2    17   G   -0.7760
    518 OP2        35.8200   31.9470    7.3500 O.co2    17   G   -0.7760
    519 O5'        35.6330   32.6450    9.7080 O.3      17   G   -0.4989
    520 C5'        35.4620   33.5710   10.7760 C.3      17   G    0.0558
    521 C4'        34.8940   32.8690   11.9810 C.3      17   G    0.1065
    522 O4'        33.6540   32.2120   11.6060 O.3      17   G   -0.3548
    523 C3'        35.7170   31.7250   12.5530 C.3      17   G    0.2022
    524 O3'        36.8070   32.1930   13.3450 O.3      17   G   -0.5246
    525 C2'        34.6600   31.0140   13.3790 C.3      17   G    0.0670
    526 O2'        34.3380   31.7260   14.5670 O.3      17   G   -0.6139
    527 C1'        33.4840   31.0450   12.3990 C.3      17   G    0.0191
    528 N9         33.5390   29.8800   11.5210 N.ar     17   G    0.0492
    529 C8         33.8660   29.8230   10.1820 C.ar     17   G    0.1374
    530 N7         33.8790   28.5980    9.7110 N.ar     17   G   -0.5709
    531 C5         33.5140   27.8190   10.8000 C.ar     17   G    0.1744
    532 C6         33.3800   26.4240   10.9130 C.2      17   G    0.4770
    533 O6         33.5440   25.5650   10.0360 O.2      17   G   -0.5597
    534 N1         33.0250   26.0470   12.2090 N.am     17   G   -0.4787
    535 C2         32.8350   26.9110   13.2650 C.2      17   G    0.7657
    536 N2         32.5070   26.3600   14.4710 N.pl3    17   G   -0.9672
    537 N3         32.9560   28.2160   13.1680 N.2      17   G   -0.6323
    538 C4         33.2970   28.6000   11.9160 C.ar     17   G    0.1222
    539 H5'        34.7787   34.3605   10.4630 H        17   G    0.0679
    540 H5''       36.4266   34.0085   11.0335 H        17   G    0.0679
    541 H4'        34.6944   33.5993   12.7652 H        17   G    0.1174
    542 H3'        36.0766   31.0768   11.7539 H        17   G    0.0615
    543 H2'        34.9587   29.9899   13.6028 H        17   G    0.0972
    544 H1'        32.5359   31.0786   12.9357 H        17   G    0.2006
    545 H8         34.0879   30.6947    9.5842 H        17   G    0.1640
    546 H1         32.8971   25.0611   12.3871 H        17   G    0.3424
    547 H21        32.4122   25.3584   14.5595 H        17   G    0.4364
    548 H22        32.3593   26.9542   15.2743 H        17   G    0.4364
    549 HO2'       33.5734   31.3226   14.9845 H        17   G    0.4186
    550 P          38.1000   31.2700   13.5380 P.3      18   G    1.1662
    551 OP1        39.0940   32.0410   14.3370 O.co2    18   G   -0.7760
    552 OP2        38.5230   30.6790   12.2320 O.co2    18   G   -0.7760
    553 O5'        37.5570   30.0150   14.3570 O.3      18   G   -0.4989
    554 C5'        37.0660   30.1380   15.6810 C.3      18   G    0.0558
    555 C4'        36.6900   28.7720   16.2110 C.3      18   G    0.1065
    556 O4'        35.6070   28.2130   15.4220 O.3      18   G   -0.3548
    557 C3'        37.7710   27.7140   16.0980 C.3      18   G    0.2022
    558 O3'        38.7230   27.8860   17.1310 O.3      18   G   -0.5246
    559 C2'        36.9470   26.4380   16.2190 C.3      18   G    0.0670
    560 O2'        36.4530   26.1830   17.5360 O.3      18   G   -0.6139
    561 C1'        35.7740   26.8020   15.3060 C.3      18   G    0.0191
    562 N9         36.0520   26.4850   13.9060 N.ar     18   G    0.0492
    563 C8         36.3520   27.3580   12.8840 C.ar     18   G    0.1374
    564 N7         36.5400   26.7550   11.7350 N.ar     18   G   -0.5709
    565 C5         36.3500   25.4120   12.0180 C.ar     18   G    0.1744
    566 C6         36.4070   24.2740   11.1670 C.2      18   G    0.4770
    567 O6         36.6340   24.2330    9.9540 O.2      18   G   -0.5597
    568 N1         36.1640   23.0980   11.8680 N.am     18   G   -0.4787
    569 C2         35.9110   23.0240   13.2180 C.2      18   G    0.7657
    570 N2         35.7420   21.7860   13.7330 N.pl3    18   G   -0.9672
    571 N3         35.8350   24.0810   14.0150 N.2      18   G   -0.6323
    572 C4         36.0600   25.2290   13.3550 C.ar     18   G    0.1222
    573 H5'        37.8382   30.5732   16.3153 H        18   G    0.0679
    574 H5''       36.1874   30.7831   15.6840 H        18   G    0.0679
    575 H4'        36.3745   28.8597   17.2507 H        18   G    0.1174
    576 H3'        38.2539   27.7650   15.1221 H        18   G    0.0615
    577 H2'        37.4944   25.5787   15.8316 H        18   G    0.0972
    578 H1'        34.8700   26.2891   15.6343 H        18   G    0.2006
    579 H8         36.4248   28.4275   13.0152 H        18   G    0.1640
    580 H1         36.1740   22.2330   11.3467 H        18   G    0.3424
    581 H21        35.8014   20.9765   13.1319 H        18   G    0.4364
    582 H22        35.5563   21.6702   14.7190 H        18   G    0.4364
    583 HO2'       35.8278   25.4550   17.5076 H        18   G    0.4186
    584 P          40.2100   27.3490   16.9370 P.3      19   A    1.1662
    585 OP1        40.9580   27.9000   18.0860 O.co2    19   A   -0.7760
    586 OP2        40.7060   27.5870   15.5480 O.co2    19   A   -0.7760
    587 O5'        40.0810   25.7680   17.1270 O.3      19   A   -0.4989
    588 C5'        39.5900   25.2300   18.3530 C.3      19   A    0.0558
    589 C4'        39.4700   23.7210   18.2540 C.3      19   A    0.1065
    590 O4'        38.5430   23.3730   17.1930 O.3      19   A   -0.3548
    591 C3'        40.7340   23.0040   17.8240 C.3      19   A    0.2022
    592 O3'        41.6540   22.8590   18.8910 O.3      19   A   -0.5246
    593 C2'        40.1840   21.6640   17.3490 C.3      19   A    0.0670
    594 O2'        39.8160   20.8160   18.4270 O.3      19   A   -0.6139
    595 C1'        38.9120   22.1180   16.6380 C.3      19   A    0.0394
    596 N9         39.0450   22.2580   15.1850 N.ar     19   A   -0.0251
    597 C8         39.0530   23.4000   14.4220 C.ar     19   A    0.2006
    598 N7         39.1440   23.1680   13.1270 N.ar     19   A   -0.6073
    599 C5         39.2130   21.7900   13.0400 C.ar     19   A    0.0515
    600 C6         39.3400   20.9270   11.9460 C.ar     19   A    0.7009
    601 N6         39.3950   21.3470   10.6800 N.pl3    19   A   -0.9019
    602 N1         39.4020   19.6020   12.1950 N.ar     19   A   -0.7615
    603 C2         39.3430   19.1790   13.4680 C.ar     19   A    0.5875
    604 N3         39.2230   19.8980   14.5860 N.ar     19   A   -0.6997
    605 C4         39.1640   21.2130   14.2970 C.ar     19   A    0.3053
    606 H5'        40.2789   25.4839   19.1586 H        19   A    0.0679
    607 H5''       38.6103   25.6568   18.5678 H        19   A    0.0679
    608 H4'        39.1177   23.3144   19.2020 H        19   A    0.1174
    609 H3'        41.2020   23.5333   16.9940 H        19   A    0.0615
    610 H2'        40.8716   21.1676   16.6642 H        19   A    0.0972
    611 H1'        38.1204   21.3985   16.8474 H        19   A    0.2007
    612 H8         38.9907   24.3929   14.8423 H        19   A    0.1553
    613 H2         39.4006   18.1094   13.6063 H        19   A    0.0473
    614 HO2'       39.5095   19.9741   18.0822 H        19   A    0.4186
    615 H61        39.2927   20.5606   10.0546 H        19   A    0.4115
    616 H62        39.5201   22.3067   10.3911 H        19   A    0.4115
    617 P          43.2170   22.9280   18.5830 P.3      20   U    1.1662
    618 OP1        43.9110   22.8960   19.8970 O.co2    20   U   -0.7760
    619 OP2        43.4580   24.0640   17.6290 O.co2    20   U   -0.7760
    620 O5'        43.5170   21.5720   17.7910 O.3      20   U   -0.4989
    621 C5'        43.1740   20.3060   18.3650 C.3      20   U    0.0558
    622 C4'        43.3360   19.2090   17.3410 C.3      20   U    0.1065
    623 O4'        42.4930   19.4940   16.1810 O.3      20   U   -0.3548
    624 C3'        44.7570   19.0550   16.8160 C.3      20   U    0.2022
    625 O3'        45.0590   17.6840   16.6850 O.3      20   U   -0.5246
    626 C2'        44.6910   19.6840   15.4320 C.3      20   U    0.0670
    627 O2'        45.6070   19.1490   14.5090 O.3      20   U   -0.6139
    628 C1'        43.2610   19.3610   15.0040 C.3      20   U    0.0674
    629 N1         42.8370   20.3850   14.0430 N.am     20   U    0.0418
    630 C2         42.7030   20.0170   12.7180 C.2      20   U    0.4687
    631 O2         42.8110   18.8770   12.3340 O.2      20   U   -0.5477
    632 N3         42.4490   21.0540   11.8570 N.am     20   U   -0.3549
    633 C4         42.3080   22.3800   12.1740 C.2      20   U    0.5952
    634 O4         42.1760   23.2060   11.2650 O.2      20   U   -0.5761
    635 C5         42.3940   22.6710   13.5700 C.2      20   U   -0.3635
    636 C6         42.6430   21.6800   14.4370 C.2      20   U   -0.1126
    637 H5'        43.8286   20.1061   19.2133 H        20   U    0.0679
    638 H5''       42.1389   20.3323   18.7056 H        20   U    0.0679
    639 H4'        43.0193   18.2644   17.7833 H        20   U    0.1174
    640 H3'        45.4780   19.5653   17.4546 H        20   U    0.0615
    641 H2'        44.8234   20.7634   15.5061 H        20   U    0.0972
    642 H1'        43.1834   18.3582   14.5840 H        20   U    0.1824
    643 H3         42.3554   20.8137   10.8805 H        20   U    0.3154
    644 H5         42.2593   23.6824   13.9241 H        20   U    0.1811
    645 H6         42.6925   21.9137   15.4902 H        20   U    0.2188
    646 HO2'       46.4988   19.2413   14.8523 H        20   U    0.4186
    647 P          46.1250   17.0120   17.6650 P.3      21   A    1.1662
    648 OP1        45.7670   17.3940   19.0670 O.co2    21   A   -0.7760
    649 OP2        47.4950   17.2660   17.1820 O.co2    21   A   -0.7760
    650 O5'        45.8250   15.4680   17.4620 O.3      21   A   -0.4989
    651 C5'        44.5570   14.9010   17.7740 C.3      21   A    0.0558
    652 C4'        44.6380   13.4140   17.5680 C.3      21   A    0.1065
    653 O4'        44.5650   13.1510   16.1380 O.3      21   A   -0.3548
    654 C3'        45.9650   12.8370   18.0380 C.3      21   A    0.2022
    655 O3'        45.7650   11.5710   18.6480 O.3      21   A   -0.5246
    656 C2'        46.8050   12.7690   16.7650 C.3      21   A    0.0670
    657 O2'        47.7740   11.7430   16.7700 O.3      21   A   -0.6139
    658 C1'        45.7480   12.5300   15.6880 C.3      21   A    0.0394
    659 N9         46.1080   13.1670   14.4210 N.ar     21   A   -0.0251
    660 C8         45.8670   14.4700   14.0740 C.ar     21   A    0.2006
    661 N7         46.3080   14.7920   12.8810 N.ar     21   A   -0.6073
    662 C5         46.8810   13.6210   12.4130 C.ar     21   A    0.0515
    663 C6         47.5340   13.3090   11.2110 C.ar     21   A    0.7009
    664 N6         47.7350   14.1990   10.2340 N.pl3    21   A   -0.9019
    665 N1         47.9810   12.0450   11.0460 N.ar     21   A   -0.7615
    666 C2         47.7830   11.1610   12.0340 C.ar     21   A    0.5875
    667 N3         47.1820   11.3360   13.2200 N.ar     21   A   -0.6997
    668 C4         46.7530   12.6050   13.3450 C.ar     21   A    0.3053
    669 H5'        43.7944   15.3222   17.1189 H        21   A    0.0679
    670 H5''       44.3059   15.1140   18.8131 H        21   A    0.0679
    671 H4'        43.8130   12.9201   18.0814 H        21   A    0.1174
    672 H3'        46.4307   13.5186   18.7498 H        21   A    0.0615
    673 H2'        47.2903   13.7301   16.5948 H        21   A    0.0972
    674 H1'        45.5860   11.4617   15.5443 H        21   A    0.2007
    675 H8         45.3602   15.1686   14.7232 H        21   A    0.1553
    676 H2         48.1612   10.1665   11.8486 H        21   A    0.0473
    677 H61        47.1343   15.0075   10.3087 H        21   A    0.4115
    678 H62        48.4160   14.0758    9.4984 H        21   A    0.4115
    679 HO2'       48.1270   11.6409   17.6569 H        21   A    0.4186
    680 P          45.8130   11.4570   20.2510 P.3      22   U    1.1662
    681 OP1        47.0650   12.0880   20.7150 O.co2    22   U   -0.7760
    682 OP2        45.5280   10.0420   20.5970 O.co2    22   U   -0.7760
    683 O5'        44.5810   12.3440   20.7440 O.3      22   U   -0.4989
    684 C5'        43.2970   11.7520   20.9560 C.3      22   U    0.0558
    685 C4'        42.5360   12.4970   22.0280 C.3      22   U    0.1065
    686 O4'        43.2990   12.4910   23.2730 O.3      22   U   -0.3548
    687 C3'        42.2630   13.9620   21.7230 C.3      22   U    0.2022
    688 O3'        41.0710   14.3780   22.3860 O.3      22   U   -0.5246
    689 C2'        43.4380   14.6390   22.4100 C.3      22   U    0.0670
    690 O2'        43.1850   16.0050   22.6690 O.3      22   U   -0.6139
    691 C1'        43.5030   13.8230   23.6990 C.3      22   U    0.0674
    692 N1         44.7960   13.9060   24.3890 N.am     22   U    0.0418
    693 C2         44.8240   14.4870   25.6540 C.2      22   U    0.4687
    694 O2         43.8140   14.8800   26.2290 O.2      22   U   -0.5477
    695 N3         46.0710   14.5820   26.2160 N.am     22   U   -0.3549
    696 C4         47.2660   14.1470   25.6630 C.2      22   U    0.5952
    697 O4         48.3150   14.3020   26.2890 O.2      22   U   -0.5761
    698 C5         47.1450   13.5370   24.3730 C.2      22   U   -0.3635
    699 C6         45.9460   13.4390   23.7950 C.2      22   U   -0.1126
    700 H5'        43.4279   10.7150   21.2653 H        22   U    0.0679
    701 H5''       42.7295   11.7810   20.0259 H        22   U    0.0679
    702 H4'        41.5852   11.9917   22.1977 H        22   U    0.1174
    703 H3'        42.2350   14.1649   20.6524 H        22   U    0.0615
    704 H2'        44.3510   14.5172   21.8272 H        22   U    0.0972
    705 H1'        42.7012   14.1257   24.3725 H        22   U    0.1824
    706 H3         46.1248   15.0137   27.1275 H        22   U    0.3154
    707 H5         48.0216   13.1573   23.8692 H        22   U    0.1811
    708 H6         45.8756   12.9747   22.8224 H        22   U    0.2188
    709 HO2'       43.1506   16.4874   21.8397 H        22   U    0.4186
    710 P          39.6510   14.2100   21.6800 P.3      23   G    1.1662
    711 OP1        38.6510   14.5490   22.7080 O.co2    23   G   -0.7760
    712 OP2        39.6330   12.8640   21.0470 O.co2    23   G   -0.7760
    713 O5'        39.6390   15.3120   20.5300 O.3      23   G   -0.4989
    714 C5'        39.6160   16.6950   20.8240 C.3      23   G    0.0558
    715 C4'        39.5000   17.4790   19.5300 C.3      23   G    0.1065
    716 O4'        40.7240   17.3000   18.7710 O.3      23   G   -0.3548
    717 C3'        38.4060   17.0060   18.5880 C.3      23   G    0.2022
    718 O3'        37.1640   17.6230   18.8950 O.3      23   G   -0.5246
    719 C2'        38.9390   17.4470   17.2340 C.3      23   G    0.0670
    720 O2'        38.7430   18.8460   17.0230 O.3      23   G   -0.6139
    721 C1'        40.4230   17.1110   17.3900 C.3      23   G    0.0191
    722 N9         40.7830   15.7380   17.0270 N.ar     23   G    0.0492
    723 C8         40.7000   14.6250   17.8310 C.ar     23   G    0.1374
    724 N7         41.0930   13.5270   17.2380 N.ar     23   G   -0.5709
    725 C5         41.4620   13.9370   15.9630 C.ar     23   G    0.1744
    726 C6         41.9710   13.1910   14.8680 C.2      23   G    0.4770
    727 O6         42.2070   11.9810   14.7980 O.2      23   G   -0.5597
    728 N1         42.2130   14.0030   13.7670 N.am     23   G   -0.4787
    729 C2         42.0020   15.3550   13.7200 C.2      23   G    0.7657
    730 N2         42.3150   15.9630   12.5520 N.pl3    23   G   -0.9672
    731 N3         41.5270   16.0650   14.7290 N.2      23   G   -0.6323
    732 C4         41.2770   15.2990   15.8120 C.ar     23   G    0.1222
    733 H5'        38.7612   16.9175   21.4627 H        23   G    0.0679
    734 H5''       40.5364   16.9735   21.3373 H        23   G    0.0679
    735 H4'        39.3590   18.5364   19.7537 H        23   G    0.1174
    736 H3'        38.3126   15.9207   18.6262 H        23   G    0.0615
    737 H2'        38.4898   16.8646   16.4296 H        23   G    0.0972
    738 H1'        41.0138   17.8071   16.7946 H        23   G    0.2006
    739 H8         40.3455   14.6546   18.8507 H        23   G    0.1640
    740 H1         42.5737   13.5602   12.9340 H        23   G    0.3424
    741 H21        42.6790   15.4203   11.7819 H        23   G    0.4364
    742 H22        42.1846   16.9594   12.4505 H        23   G    0.4364
    743 HO2'       39.1439   19.1037   16.1896 H        23   G    0.4186
    744 P          35.7960   16.8290   18.6560 P.3      24   G    1.1662
    745 OP1        34.6980   17.6330   19.2280 O.co2    24   G   -0.7760
    746 OP2        35.9630   15.4060   19.0780 O.co2    24   G   -0.7760
    747 O5'        35.6400   16.8120   17.0740 O.3      24   G   -0.4989
    748 C5'        35.4250   18.0120   16.3490 C.3      24   G    0.0558
    749 C4'        35.6070   17.7410   14.8820 C.3      24   G    0.1065
    750 O4'        36.9920   17.3790   14.6600 O.3      24   G   -0.3548
    751 C3'        34.8150   16.5550   14.3650 C.3      24   G    0.2022
    752 O3'        33.4900   16.9500   14.0180 O.3      24   G   -0.5246
    753 C2'        35.6400   16.1410   13.1460 C.3      24   G    0.0670
    754 O2'        35.3770   16.9060   11.9860 O.3      24   G   -0.6139
    755 C1'        37.0720   16.4040   13.6300 C.3      24   G    0.0191
    756 N9         37.6530   15.1800   14.1720 N.ar     24   G    0.0492
    757 C8         37.4310   14.6270   15.4140 C.ar     24   G    0.1374
    758 N7         37.9250   13.4240   15.5310 N.ar     24   G   -0.5709
    759 C5         38.5460   13.1890   14.3110 C.ar     24   G    0.1744
    760 C6         39.1890   12.0270   13.8210 C.2      24   G    0.4770
    761 O6         39.3080   10.9180   14.3770 O.2      24   G   -0.5597
    762 N1         39.6830   12.2190   12.5340 N.am     24   G   -0.4787
    763 C2         39.5500   13.3770   11.8040 C.2      24   G    0.7657
    764 N2         40.0880   13.3730   10.5670 N.pl3    24   G   -0.9672
    765 N3         38.9320   14.4580   12.2420 N.2      24   G   -0.6323
    766 C4         38.4430   14.2890   13.4890 C.ar     24   G    0.1222
    767 H5'        34.4120   18.3712   16.5305 H        24   G    0.0679
    768 H5''       36.1425   18.7664   16.6720 H        24   G    0.0679
    769 H4'        35.3592   18.6326   14.3060 H        24   G    0.1174
    770 H3'        34.7955   15.7548   15.1048 H        24   G    0.0615
    771 H2'        35.5005   15.0801   12.9383 H        24   G    0.0972
    772 H1'        37.6829   16.7767   12.8078 H        24   G    0.2006
    773 H8         36.9036   15.1352   16.2077 H        24   G    0.1640
    774 H1         40.1764   11.4499   12.1037 H        24   G    0.3424
    775 H21        40.0189   14.1945    9.9836 H        24   G    0.4364
    776 H22        40.5600   12.5485   10.2242 H        24   G    0.4364
    777 HO2'       34.4802   16.7377   11.6876 H        24   G    0.4186
    778 P          32.2310   16.0420   14.4380 P.3      25   C    1.1662
    779 OP1        32.7220   14.7720   15.0450 O.co2    25   C   -0.7760
    780 OP2        31.3060   15.9920   13.2890 O.co2    25   C   -0.7760
    781 O5'        31.4930   16.8750   15.5790 O.3      25   C   -0.4989
    782 C5'        30.6540   17.9810   15.2490 C.3      25   C    0.0558
    783 C4'        31.0100   19.1780   16.1000 C.3      25   C    0.1065
    784 O4'        32.3400   19.6550   15.7530 O.3      25   C   -0.3548
    785 C3'        30.0970   20.3810   15.9330 C.3      25   C    0.2022
    786 O3'        29.0230   20.2850   16.8580 O.3      25   C   -0.5246
    787 C2'        31.0200   21.5400   16.2770 C.3      25   C    0.0670
    788 O2'        31.1940   21.7000   17.6730 O.3      25   C   -0.6139
    789 C1'        32.3410   21.0650   15.6670 C.3      25   C    0.0066
    790 N1         32.5230   21.4500   14.2540 N.am     25   C   -0.0484
    791 C2         32.6520   22.8110   13.9600 C.2      25   C    0.7538
    792 O2         32.6090   23.6170   14.8890 O.2      25   C   -0.6252
    793 N3         32.8210   23.2080   12.6740 N.2      25   C   -0.7584
    794 C4         32.8630   22.2920   11.7010 C.2      25   C    0.8185
    795 N4         33.0290   22.7230   10.4490 N.pl3    25   C   -0.9530
    796 C5         32.7380   20.8900   11.9710 C.2      25   C   -0.5215
    797 C6         32.5720   20.5180   13.2540 C.2      25   C    0.0053
    798 H5'        30.7890   18.2340   14.1974 H        25   C    0.0679
    799 H5''       29.6130   17.7097   15.4245 H        25   C    0.0679
    800 H4'        31.0069   18.8775   17.1477 H        25   C    0.1174
    801 H3'        29.7304   20.4590   14.9095 H        25   C    0.0615
    802 H2'        30.6810   22.4660   15.8126 H        25   C    0.0972
    803 H1'        33.1696   21.4592   16.2553 H        25   C    0.2029
    804 H5         32.7755   20.1602   11.1758 H        25   C    0.1928
    805 H6         32.4763   19.4700   13.4970 H        25   C    0.1958
    806 H41        33.1173   23.7118   10.2628 H        25   C    0.4234
    807 H42        33.0663   22.0604    9.6876 H        25   C    0.4234
    808 HO2'       31.8807   22.3504   17.8372 H        25   C    0.4186
    809 P          27.6320   21.0080   16.5400 P.3      26   A    1.1662
    810 OP1        26.6720   20.6510   17.6420 O.co2    26   A   -0.7760
    811 OP2        27.2440   20.7540   15.1270 O.co2    26   A   -0.7760
    812 O5'        27.9690   22.5630   16.6490 O.3      26   A   -0.4989
    813 C5'        28.1160   23.1980   17.9160 C.3      26   A    0.0558
    814 C4'        28.1580   24.7020   17.7430 C.3      26   A    0.1065
    815 O4'        29.3460   25.0660   16.9910 O.3      26   A   -0.3548
    816 C3'        27.0280   25.2810   16.9120 C.3      26   A    0.2022
    817 O3'        25.8400   25.4500   17.6750 O.3      26   A   -0.5246
    818 C2'        27.6270   26.6070   16.4670 C.3      26   A    0.0670
    819 O2'        27.6690   27.5610   17.5150 O.3      26   A   -0.6139
    820 C1'        29.0470   26.1600   16.1330 C.3      26   A    0.0394
    821 N9         29.2070   25.6980   14.7550 N.ar     26   A   -0.0251
    822 C8         29.1950   24.4060   14.2940 C.ar     26   A    0.2006
    823 N7         29.4490   24.3030   13.0070 N.ar     26   A   -0.6073
    824 C5         29.6200   25.6150   12.5960 C.ar     26   A    0.0515
    825 C6         29.9350   26.1880   11.3430 C.ar     26   A    0.7009
    826 N6         30.1670   25.4770   10.2320 N.pl3    26   A   -0.9019
    827 N1         30.0210   27.5320   11.2760 N.ar     26   A   -0.7615
    828 C2         29.8220   28.2470   12.3920 C.ar     26   A    0.5875
    829 N3         29.5360   27.8210   13.6240 N.ar     26   A   -0.6997
    830 C4         29.4490   26.4860   13.6560 C.ar     26   A    0.3053
    831 H5'        27.2721   22.9319   18.5525 H        26   A    0.0679
    832 H5''       29.0415   22.8619   18.3836 H        26   A    0.0679
    833 H4'        28.1797   25.1839   18.7204 H        26   A    0.1174
    834 H3'        26.8332   24.6467   16.0473 H        26   A    0.0615
    835 H2'        27.1157   27.0012   15.5888 H        26   A    0.0972
    836 H1'        29.7421   26.9769   16.3272 H        26   A    0.2007
    837 H8         28.9960   23.5541   14.9273 H        26   A    0.1553
    838 H2         29.9047   29.3178   12.2784 H        26   A    0.0473
    839 H61        30.4709   26.0461    9.4549 H        26   A    0.4115
    840 H62        30.0501   24.4753   10.1769 H        26   A    0.4115
    841 HO2'       26.7764   27.8438   17.7269 H        26   A    0.4186
    842 P          24.4160   25.3260   16.9600 P.3      27   C    1.1662
    843 OP1        23.3490   25.3600   17.9990 O.co2    27   C   -0.7760
    844 OP2        24.4730   24.1960   16.0050 O.co2    27   C   -0.7760
    845 O5'        24.3030   26.6370   16.0560 O.3      27   C   -0.4989
    846 C5'        24.2460   27.9250   16.6560 C.3      27   C    0.0558
    847 C4'        24.3930   29.0090   15.6100 C.3      27   C    0.1065
    848 O4'        25.7260   28.9760   15.0280 O.3      27   C   -0.3548
    849 C3'        23.5120   28.9080   14.3820 C.3      27   C    0.2022
    850 O3'        22.1710   29.2720   14.6720 O.3      27   C   -0.5246
    851 C2'        24.2230   29.9090   13.4860 C.3      27   C    0.0670
    852 O2'        24.1280   31.2370   13.9970 O.3      27   C   -0.6139
    853 C1'        25.6600   29.4340   13.6780 C.3      27   C    0.0066
    854 N1         25.9930   28.3190   12.7750 N.am     27   C   -0.0484
    855 C2         26.3620   28.6300   11.4710 C.2      27   C    0.7538
    856 O2         26.3680   29.8200   11.1290 O.2      27   C   -0.6252
    857 N3         26.6710   27.6410   10.6110 N.2      27   C   -0.7584
    858 C4         26.5710   26.3690   10.9960 C.2      27   C    0.8185
    859 N4         26.8270   25.4230   10.0820 N.pl3    27   C   -0.9530
    860 C5         26.1920   26.0080   12.3250 C.2      27   C   -0.5215
    861 C6         25.9240   27.0120   13.1840 C.2      27   C    0.0053
    862 H5'        25.0532   28.0172   17.3826 H        27   C    0.0679
    863 H5''       23.2891   28.0430   17.1644 H        27   C    0.0679
    864 H4'        24.2355   29.9795   16.0806 H        27   C    0.1174
    865 H3'        23.5572   27.9062   13.9549 H        27   C    0.0615
    866 H2'        23.8985   29.8399   12.4477 H        27   C    0.0972
    867 H1'        26.3535   30.2612   13.5266 H        27   C    0.2029
    868 H5         26.1230   24.9740   12.6291 H        27   C    0.1928
    869 H6         25.6523   26.7846   14.2042 H        27   C    0.1958
    870 H41        27.0895   25.6860    9.1429 H        27   C    0.4234
    871 H42        26.7574   24.4470   10.3323 H        27   C    0.4234
    872 HO2'       23.2303   31.5591   13.8873 H        27   C    0.4186
    873 P          20.9690   28.6320   13.8370 P.3      28   G    1.1662
    874 OP1        19.7010   29.1270   14.4550 O.co2    28   G   -0.7760
    875 OP2        21.2000   27.1690   13.6970 O.co2    28   G   -0.7760
    876 O5'        21.0820   29.2610   12.3820 O.3      28   G   -0.4989
    877 C5'        20.9760   30.6710   12.2080 C.3      28   G    0.0558
    878 C4'        21.4390   31.0650   10.8220 C.3      28   G    0.1065
    879 O4'        22.8290   30.6690   10.6300 O.3      28   G   -0.3548
    880 C3'        20.7300   30.4030    9.6510 C.3      28   G    0.2022
    881 O3'        19.4730   31.0050    9.3730 O.3      28   G   -0.5246
    882 C2'        21.7190   30.6730    8.5360 C.3      28   G    0.0670
    883 O2'        21.6420   32.0070    8.0850 O.3      28   G   -0.6139
    884 C1'        23.0510   30.4160    9.2520 C.3      28   G    0.0191
    885 N9         23.4350   29.0220    9.0950 N.ar     28   G    0.0492
    886 C8         23.3490   27.9960   10.0060 C.ar     28   G    0.1374
    887 N7         23.7500   26.8490    9.5220 N.ar     28   G   -0.5709
    888 C5         24.1320   27.1450    8.2170 C.ar     28   G    0.1744
    889 C6         24.6370   26.3200    7.1930 C.2      28   G    0.4770
    890 O6         24.8650   25.1240    7.2190 O.2      28   G   -0.5597
    891 N1         24.8740   27.0390    6.0210 N.am     28   G   -0.4787
    892 C2         24.6430   28.3740    5.8490 C.2      28   G    0.7657
    893 N2         24.9090   28.8730    4.6240 N.pl3    28   G   -0.9672
    894 N3         24.1760   29.1600    6.7990 N.2      28   G   -0.6323
    895 C4         23.9440   28.4830    7.9450 C.ar     28   G    0.1222
    896 H5'        21.5967   31.1726   12.9505 H        28   G    0.0679
    897 H5''       19.9375   30.9741   12.3414 H        28   G    0.0679
    898 H4'        21.3614   32.1472   10.7170 H        28   G    0.1174
    899 H3'        20.6185   29.3320    9.8200 H        28   G    0.0615
    900 H2'        21.5780   29.9738    7.7117 H        28   G    0.0972
    901 H1'        23.8282   31.0734    8.8624 H        28   G    0.2006
    902 H8         22.9880   28.1238   11.0158 H        28   G    0.1640
    903 H1         25.2479   26.5292    5.2334 H        28   G    0.3424
    904 H21        25.2626   28.2668    3.8977 H        28   G    0.4364
    905 H22        24.7545   29.8527    4.4333 H        28   G    0.4364
    906 HO2'       21.3668   32.0190    7.1654 H        28   G    0.4186
    907 P          18.3830   30.2250    8.4790 P.3      29   C    1.1662
    908 OP1        17.1140   30.9760    8.5600 O.co2    29   C   -0.7760
    909 OP2        18.3980   28.7790    8.8160 O.co2    29   C   -0.7760
    910 O5'        18.9300   30.3630    6.9870 O.3      29   C   -0.4989
    911 C5'        19.1060   31.6410    6.3830 C.3      29   C    0.0558
    912 C4'        19.6500   31.4820    4.9850 C.3      29   C    0.1065
    913 O4'        20.9380   30.8190    5.0360 O.3      29   C   -0.3548
    914 C3'        18.8350   30.5900    4.0710 C.3      29   C    0.2022
    915 O3'        17.7230   31.2970    3.5450 O.3      29   C   -0.5246
    916 C2'        19.8600   30.2100    3.0040 C.3      29   C    0.0670
    917 O2'        20.0880   31.2210    2.0410 O.3      29   C   -0.6139
    918 C1'        21.1230   30.0510    3.8510 C.3      29   C    0.0066
    919 N1         21.4010   28.6550    4.2290 N.am     29   C   -0.0484
    920 C2         22.0350   27.8210    3.2910 C.2      29   C    0.7538
    921 O2         22.3090   28.2840    2.1710 O.2      29   C   -0.6252
    922 N3         22.3240   26.5380    3.6270 N.2      29   C   -0.7584
    923 C4         22.0000   26.0800    4.8430 C.2      29   C    0.8185
    924 N4         22.3100   24.8190    5.1370 N.pl3    29   C   -0.9530
    925 C5         21.3430   26.9020    5.8110 C.2      29   C   -0.5215
    926 C6         21.0640   28.1700    5.4640 C.2      29   C    0.0053
    927 H5'        18.1457   32.1548    6.3399 H        29   C    0.0679
    928 H5''       19.8045   32.2292    6.9782 H        29   C    0.0679
    929 H4'        19.7649   32.4640    4.5261 H        29   C    0.1174
    930 H3'        18.5001   29.7024    4.6078 H        29   C    0.0615
    931 H2'        19.5919   29.2687    2.5243 H        29   C    0.0972
    932 H1'        21.9750   30.4473    3.2986 H        29   C    0.2029
    933 H5         21.0805   26.5178    6.7856 H        29   C    0.1928
    934 H6         20.5658   28.8169    6.1709 H        29   C    0.1958
    935 H41        22.7745   24.2403    4.4519 H        29   C    0.4234
    936 H42        22.0807   24.4412    6.0451 H        29   C    0.4234
    937 HO2'       19.3022   31.3322    1.5009 H        29   C    0.4186
    938 P          16.4920   30.4790    2.9260 P.3      30   G    1.1662
    939 OP1        15.4630   31.4620    2.4830 O.co2    30   G   -0.7760
    940 OP2        16.1120   29.3950    3.8610 O.co2    30   G   -0.7760
    941 O5'        17.1250   29.8360    1.6190 O.3      30   G   -0.4989
    942 C5'        16.7400   28.5560    1.1670 C.3      30   G    0.0558
    943 C4'        17.6230   28.1540    0.0160 C.3      30   G    0.1065
    944 O4'        18.9780   27.9820    0.5070 O.3      30   G   -0.3548
    945 C3'        17.2720   26.8340   -0.6510 C.3      30   G    0.2022
    946 O3'        16.3410   27.0310   -1.6980 O.3      30   G   -0.5246
    947 C2'        18.6210   26.3800   -1.1800 C.3      30   G    0.0670
    948 O2'        19.0050   27.0280   -2.3790 O.3      30   G   -0.6139
    949 C1'        19.5340   26.7980   -0.0280 C.3      30   G    0.0191
    950 N9         19.5870   25.8000    1.0330 N.ar     30   G    0.0492
    951 C8         19.2260   25.9630    2.3510 C.ar     30   G    0.1374
    952 N7         19.3930   24.8820    3.0630 N.ar     30   G   -0.5709
    953 C5         19.8980   23.9490    2.1620 C.ar     30   G    0.1744
    954 C6         20.2740   22.5890    2.3440 C.2      30   G    0.4770
    955 O6         20.2590   21.9060    3.3800 O.2      30   G   -0.5597
    956 N1         20.7120   22.0190    1.1600 N.am     30   G   -0.4787
    957 C2         20.7910   22.6620   -0.0460 C.2      30   G    0.7657
    958 N2         21.2300   21.9340   -1.0790 N.pl3    30   G   -0.9672
    959 N3         20.4600   23.9260   -0.2280 N.2      30   G   -0.6323
    960 C4         20.0190   24.5010    0.9070 C.ar     30   G    0.1222
    961 H5'        16.8467   27.8354    1.9778 H        30   G    0.0679
    962 H5''       15.7013   28.5829    0.8375 H        30   G    0.0679
    963 H4'        17.6135   28.9454   -0.7335 H        30   G    0.1174
    964 H3'        16.8856   26.1236    0.0798 H        30   G    0.0615
    965 H2'        18.6373   25.2976   -1.3078 H        30   G    0.0972
    966 H1'        20.5383   26.9955   -0.4028 H        30   G    0.2006
    967 H8         18.8442   26.8893    2.7543 H        30   G    0.1640
    968 H1         20.9962   21.0502    1.1888 H        30   G    0.3424
    969 H21        21.4828   20.9656   -0.9431 H        30   G    0.4364
    970 H22        21.3086   22.3528   -1.9947 H        30   G    0.4364
    971 HO2'       18.4225   26.7550   -3.0916 H        30   G    0.4186
    972 P          15.1210   26.0070   -1.8620 P.3      31   A    1.1662
    973 OP1        14.5050   26.2260   -3.2000 O.co2    31   A   -0.7760
    974 OP2        14.2970   26.1190   -0.6390 O.co2    31   A   -0.7760
    975 O5'        15.8250   24.5760   -1.8450 O.3      31   A   -0.4989
    976 C5'        16.6780   24.1620   -2.9070 C.3      31   A    0.0558
    977 C4'        17.0540   22.7080   -2.7430 C.3      31   A    0.1065
    978 O4'        18.0010   22.5660   -1.6520 O.3      31   A   -0.3548
    979 C3'        15.9240   21.7510   -2.3890 C.3      31   A    0.2022
    980 O3'        15.2680   21.3530   -3.5890 O.3      31   A   -0.5246
    981 C2'        16.7040   20.5930   -1.7730 C.3      31   A    0.0670
    982 O2'        17.3970   19.8230   -2.7390 O.3      31   A   -0.6139
    983 C1'        17.7530   21.3510   -0.9630 C.3      31   A    0.0394
    984 N9         17.3330   21.6990    0.3890 N.ar     31   A   -0.0251
    985 C8         16.7220   22.8490    0.8100 C.ar     31   A    0.2006
    986 N7         16.5720   22.9220    2.1060 N.ar     31   A   -0.6073
    987 C5         17.0930   21.7220    2.5660 C.ar     31   A    0.0515
    988 C6         17.2630   21.2030    3.8520 C.ar     31   A    0.7009
    989 N6         16.9070   21.8570    4.9640 N.pl3    31   A   -0.9019
    990 N1         17.8300   19.9820    3.9670 N.ar     31   A   -0.7615
    991 C2         18.1940   19.3350    2.8530 C.ar     31   A    0.5875
    992 N3         18.0940   19.7240    1.5840 N.ar     31   A   -0.6997
    993 C4         17.5360   20.9460    1.5140 C.ar     31   A    0.3053
    994 H5'        17.5826   24.7700   -2.8990 H        31   A    0.0679
    995 H5''       16.1617   24.2961   -3.8575 H        31   A    0.0679
    996 H4'        17.5272   22.3641   -3.6627 H        31   A    0.1174
    997 H3'        15.2283   22.1937   -1.6762 H        31   A    0.0615
    998 H2'        16.0725   19.9722   -1.1374 H        31   A    0.0972
    999 H1'        18.6709   20.7648   -0.9186 H        31   A    0.2007
   1000 H8         16.3941   23.6245    0.1336 H        31   A    0.1553
   1001 H2         18.6307   18.3591    3.0056 H        31   A    0.0473
   1002 HO2'       16.9026   19.0213   -2.9245 H        31   A    0.4186
   1003 H61        16.4867   22.7730    4.8985 H        31   A    0.4115
   1004 H62        17.0587   21.4345    5.8688 H        31   A    0.4115
   1005 P          13.6770   21.1110   -3.6060 P.3      32   G    1.1662
   1006 OP1        13.2790   21.2600   -5.0240 O.co2    32   G   -0.7760
   1007 OP2        12.9950   21.9290   -2.5680 O.co2    32   G   -0.7760
   1008 O5'        13.5410   19.5730   -3.2150 O.3      32   G   -0.4989
   1009 C5'        14.1970   18.5690   -3.9820 C.3      32   G    0.0558
   1010 C4'        14.4340   17.3340   -3.1460 C.3      32   G    0.1065
   1011 O4'        15.3280   17.6640   -2.0480 O.3      32   G   -0.3548
   1012 C3'        13.2080   16.7500   -2.4610 C.3      32   G    0.2022
   1013 O3'        12.5340   15.8810   -3.3650 O.3      32   G   -0.5246
   1014 C2'        13.8490   15.9690   -1.3120 C.3      32   G    0.0670
   1015 O2'        14.4560   14.7650   -1.7360 O.3      32   G   -0.6139
   1016 C1'        14.9810   16.9110   -0.9020 C.3      32   G    0.0191
   1017 N9         14.6430   17.8420    0.1670 N.ar     32   G    0.0492
   1018 C8         13.9630   19.0260    0.0410 C.ar     32   G    0.1374
   1019 N7         13.8130   19.6550    1.1770 N.ar     32   G   -0.5709
   1020 C5         14.4370   18.8350    2.1100 C.ar     32   G    0.1744
   1021 C6         14.6070   19.0020    3.5050 C.2      32   G    0.4770
   1022 O6         14.2290   19.9450    4.2220 O.2      32   G   -0.5597
   1023 N1         15.3040   17.9340    4.0660 N.am     32   G   -0.4787
   1024 C2         15.7870   16.8550    3.3750 C.2      32   G    0.7657
   1025 N2         16.4500   15.9390    4.0980 N.pl3    32   G   -0.9672
   1026 N3         15.6360   16.6870    2.0680 N.2      32   G   -0.6323
   1027 C4         14.9540   17.7110    1.5050 C.ar     32   G    0.1222
   1028 H5'        13.5748   18.3083   -4.8381 H        32   G    0.0679
   1029 H5''       15.1536   18.9535   -4.3358 H        32   G    0.0679
   1030 H4'        14.8971   16.5662   -3.7657 H        32   G    0.1174
   1031 H3'        12.5461   17.5331   -2.0913 H        32   G    0.0615
   1032 H2'        13.1465   15.8018   -0.4955 H        32   G    0.0972
   1033 H1'        15.8418   16.3171   -0.5949 H        32   G    0.2006
   1034 H8         13.5895   19.4006   -0.9006 H        32   G    0.1640
   1035 H1         15.4661   17.9575    5.0626 H        32   G    0.3424
   1036 H21        16.5662   16.0684    5.0929 H        32   G    0.4364
   1037 H22        16.8328   15.1203    3.6472 H        32   G    0.4364
   1038 HO2'       13.7790   14.1010   -1.8856 H        32   G    0.4186
   1039 P          10.9600   16.0700   -3.6460 P.3      33   U    1.1662
   1040 OP1        10.6990   15.3410   -4.9160 O.co2    33   U   -0.7760
   1041 OP2        10.5890   17.4970   -3.5330 O.co2    33   U   -0.7760
   1042 O5'        10.2470   15.2920   -2.4530 O.3      33   U   -0.4989
   1043 C5'        10.4620   13.9000   -2.2490 C.3      33   U    0.0558
   1044 C4'         9.5550   13.3920   -1.1460 C.3      33   U    0.1065
   1045 O4'        10.0030   13.9040    0.1460 O.3      33   U   -0.3548
   1046 C3'         8.0940   13.8080   -1.2690 C.3      33   U    0.2022
   1047 O3'         7.2780   12.7630   -0.7470 O.3      33   U   -0.5246
   1048 C2'         8.0190   15.0300   -0.3600 C.3      33   U    0.0670
   1049 O2'         6.7160   15.2740    0.1370 O.3      33   U   -0.6139
   1050 C1'         8.9380   14.5940    0.7770 C.3      33   U    0.0674
   1051 N1          9.4730   15.7130    1.5690 N.am     33   U    0.0418
   1052 C2          9.3700   15.6380    2.9480 C.2      33   U    0.4687
   1053 O2          8.9360   14.6640    3.5290 O.2      33   U   -0.5477
   1054 N3          9.8200   16.7410    3.6280 N.am     33   U   -0.3549
   1055 C4         10.3850   17.8740    3.0870 C.2      33   U    0.5952
   1056 O4         10.7440   18.7870    3.8330 O.2      33   U   -0.5761
   1057 C5         10.4910   17.8630    1.6630 C.2      33   U   -0.3635
   1058 C6         10.0400   16.8110    0.9680 C.2      33   U   -0.1126
   1059 H5'        10.2443   13.3621   -3.1717 H        33   U    0.0679
   1060 H5''       11.5018   13.7317   -1.9688 H        33   U    0.0679
   1061 H4'         9.6067   12.3034   -1.1262 H        33   U    0.1174
   1062 H3'         7.8286   14.0525   -2.2975 H        33   U    0.0615
   1063 H2'         8.4146   15.9127   -0.8624 H        33   U    0.0972
   1064 H1'         8.4016   13.9092    1.4339 H        33   U    0.1824
   1065 H3          9.7269   16.7197    4.6335 H        33   U    0.3154
   1066 H5         10.9343   18.7020    1.1473 H        33   U    0.1811
   1067 H6         10.1253   16.8261   -0.1085 H        33   U    0.2188
   1068 HO2'        6.2721   15.9115   -0.4270 H        33   U    0.4186
   1069 P           6.4590   11.8150   -1.7560 P.3      34   U    1.1662
   1070 OP1         5.7120   10.8530   -0.9170 O.co2    34   U   -0.7760
   1071 OP2         7.3740   11.3140   -2.8140 O.co2    34   U   -0.7760
   1072 O5'         5.4030   12.8110   -2.4050 O.3      34   U   -0.4989
   1073 C5'         4.4700   13.4930   -1.5820 C.3      34   U    0.0558
   1074 C4'         3.7670   14.5720   -2.3620 C.3      34   U    0.1065
   1075 O4'         2.9370   13.9650   -3.3880 O.3      34   U   -0.3548
   1076 C3'         2.8400   15.4280   -1.5090 C.3      34   U    0.2022
   1077 O3'         3.0110   16.8050   -1.7910 O.3      34   U   -0.5246
   1078 C2'         1.4480   14.9410   -1.8830 C.3      34   U    0.0670
   1079 O2'         0.4760   15.9590   -1.7680 O.3      34   U   -0.6139
   1080 C1'         1.6460   14.5310   -3.3380 C.3      34   U    0.0674
   1081 N1          0.6880   13.5050   -3.7550 N.am     34   U    0.0418
   1082 C2         -0.1810   13.8110   -4.7890 C.2      34   U    0.4687
   1083 O2         -0.1700   14.8880   -5.3740 O.2      34   U   -0.5477
   1084 N3         -1.0610   12.8100   -5.1130 N.am     34   U   -0.3549
   1085 C4         -1.1590   11.5660   -4.5210 C.2      34   U    0.5952
   1086 O4         -2.0480   10.8010   -4.8800 O.2      34   U   -0.5761
   1087 C5         -0.2190   11.3230   -3.4730 C.2      34   U   -0.3635
   1088 C6          0.6520   12.2760   -3.1340 C.2      34   U   -0.1126
   1089 H5'         4.9966   13.9440   -0.7410 H        34   U    0.0679
   1090 H5''        3.7339   12.7822   -1.2066 H        34   U    0.0679
   1091 H4'         4.5104   15.2129   -2.8360 H        34   U    0.1174
   1092 H3'         3.0280   15.2392   -0.4521 H        34   U    0.0615
   1093 H2'         1.1702   14.0781   -1.2778 H        34   U    0.0972
   1094 H1'         1.5840   15.4006   -3.9922 H        34   U    0.1824
   1095 H3         -1.7066   13.0034   -5.8652 H        34   U    0.3154
   1096 H5         -0.2131   10.3737   -2.9580 H        34   U    0.1811
   1097 H6          1.3570   12.0754   -2.3408 H        34   U    0.2188
   1098 HO2'        0.3705   16.1985   -0.8444 H        34   U    0.4186
   1099 P           4.1720   17.6170   -1.0430 P.3      35   U    1.1662
   1100 OP1         3.8660   19.0670   -1.1390 O.co2    35   U   -0.7760
   1101 OP2         5.4600   17.1040   -1.5600 O.co2    35   U   -0.7760
   1102 O5'         4.0540   17.1600    0.4830 O.3      35   U   -0.4989
   1103 C5'         2.9380   17.5230    1.2910 C.3      35   U    0.0558
   1104 C4'         3.3050   17.4080    2.7530 C.3      35   U    0.1065
   1105 O4'         3.2730   16.0140    3.1710 O.3      35   U   -0.3548
   1106 C3'         4.7070   17.9060    3.0950 C.3      35   U    0.2022
   1107 O3'         4.6910   18.6300    4.3160 O.3      35   U   -0.5246
   1108 C2'         5.5090   16.6200    3.2430 C.3      35   U    0.0670
   1109 O2'         6.6160   16.7640    4.1040 O.3      35   U   -0.6139
   1110 C1'         4.4640   15.7050    3.8690 C.3      35   U    0.0674
   1111 N1          4.7320   14.2650    3.7270 N.am     35   U    0.0418
   1112 C2          4.4440   13.4560    4.8100 C.2      35   U    0.4687
   1113 O2          4.0390   13.8960    5.8780 O.2      35   U   -0.5477
   1114 N3          4.6550   12.1170    4.6080 N.am     35   U   -0.3549
   1115 C4          5.1360   11.5110    3.4630 C.2      35   U    0.5952
   1116 O4          5.1950   10.2810    3.4120 O.2      35   U   -0.5761
   1117 C5          5.4510   12.4140    2.4000 C.2      35   U   -0.3635
   1118 C6          5.2380   13.7300    2.5600 C.2      35   U   -0.1126
   1119 H5'         2.6506   18.5509    1.0700 H        35   U    0.0679
   1120 H5''        2.1019   16.8583    1.0739 H        35   U    0.0679
   1121 H4'         2.5795   17.9684    3.3426 H        35   U    0.1174
   1122 H3'         5.1065   18.5195    2.2875 H        35   U    0.0615
   1123 H2'         5.8213   16.2432    2.2691 H        35   U    0.0972
   1124 H1'         4.3450   15.9530    4.9237 H        35   U    0.1824
   1125 H3          4.4347   11.5057    5.3812 H        35   U    0.3154
   1126 H5          5.8584   12.0392    1.4727 H        35   U    0.1811
   1127 H6          5.4720   14.3963    1.7429 H        35   U    0.2188
   1128 HO2'        6.9046   17.6796    4.1046 H        35   U    0.4186
   1129 P           5.6850   19.8750    4.5000 P.3      36   C    1.1662
   1130 OP1         5.1900   21.0070    3.6750 O.co2    36   C   -0.7760
   1131 OP2         7.0860   19.3860    4.3080 O.co2    36   C   -0.7760
   1132 O5'         5.5020   20.2910    6.0160 O.3      36   C   -0.4989
   1133 C5'         4.3570   21.0190    6.4330 C.3      36   C    0.0558
   1134 C4'         4.0730   20.7170    7.8750 C.3      36   C    0.1065
   1135 O4'         3.6050   19.3420    7.9710 O.3      36   C   -0.3548
   1136 C3'         5.3040   20.7350    8.7650 C.3      36   C    0.2022
   1137 O3'         5.6340   22.0580    9.1740 O.3      36   C   -0.5246
   1138 C2'         4.8600   19.8520    9.9210 C.3      36   C    0.0670
   1139 O2'         4.0100   20.5060   10.8350 O.3      36   C   -0.6139
   1140 C1'         4.0580   18.7770    9.1860 C.3      36   C    0.0066
   1141 N1          4.8620   17.5910    8.8810 N.am     36   C   -0.0484
   1142 C2          5.3110   16.8150    9.9440 C.2      36   C    0.7538
   1143 O2          5.0110   17.1620   11.0970 O.2      36   C   -0.6252
   1144 N3          6.0600   15.7110    9.6950 N.2      36   C   -0.7584
   1145 C4          6.3430   15.3700    8.4360 C.2      36   C    0.8185
   1146 N4          7.0420   14.2530    8.2340 N.pl3    36   C   -0.9530
   1147 C5          5.9050   16.1520    7.3240 C.2      36   C   -0.5215
   1148 C6          5.1710   17.2460    7.5900 C.2      36   C    0.0053
   1149 H5'         3.5002   20.7286    5.8251 H        36   C    0.0679
   1150 H5''        4.5418   22.0867    6.3146 H        36   C    0.0679
   1151 H4'         3.3175   21.4007    8.2621 H        36   C    0.1174
   1152 H3'         6.1485   20.2800    8.2475 H        36   C    0.0615
   1153 H2'         5.7193   19.4165   10.4310 H        36   C    0.0972
   1154 H1'         3.2001   18.4869    9.7926 H        36   C    0.2029
   1155 H5          6.1536   15.8753    6.3101 H        36   C    0.1928
   1156 H6          4.8195   17.8622    6.7756 H        36   C    0.1958
   1157 H41         7.3454   13.6978    9.0213 H        36   C    0.4234
   1158 H42         7.2682   13.9619    7.2937 H        36   C    0.4234
   1159 HO2'        4.5033   21.1838   11.3028 H        36   C    0.4186
   1160 P           7.1740   22.5310    9.1700 P.3      37   U    1.1662
   1161 OP1         7.2410   23.8730    9.8220 O.co2    37   U   -0.7760
   1162 OP2         7.7180   22.3510    7.8000 O.co2    37   U   -0.7760
   1163 O5'         7.8950   21.4870   10.1310 O.3      37   U   -0.4989
   1164 C5'         7.6460   21.5040   11.5300 C.3      37   U    0.0558
   1165 C4'         8.2130   20.2640   12.1790 C.3      37   U    0.1065
   1166 O4'         7.6370   19.0750   11.5640 O.3      37   U   -0.3548
   1167 C3'         9.7110   20.0520   12.0280 C.3      37   U    0.2022
   1168 O3'        10.4340   20.8220   12.9860 O.3      37   U   -0.5246
   1169 C2'         9.8180   18.5640   12.3280 C.3      37   U    0.0670
   1170 O2'         9.6840   18.3010   13.7130 O.3      37   U   -0.6139
   1171 C1'         8.5910   18.0250   11.5880 C.3      37   U    0.0674
   1172 N1          8.8800   17.6160   10.2030 N.am     37   U    0.0418
   1173 C2          9.4830   16.3880   10.0200 C.2      37   U    0.4687
   1174 O2          9.8130   15.6730   10.9430 O.2      37   U   -0.5477
   1175 N3          9.7000   16.0310    8.7140 N.am     37   U   -0.3549
   1176 C4          9.3970   16.7610    7.5960 C.2      37   U    0.5952
   1177 O4          9.5960   16.2640    6.4870 O.2      37   U   -0.5761
   1178 C5          8.8000   18.0350    7.8580 C.2      37   U   -0.3635
   1179 C6          8.5650   18.4110    9.1260 C.2      37   U   -0.1126
   1180 H5'         6.5705   21.5404   11.7031 H        37   U    0.0679
   1181 H5''        8.1122   22.3862   11.9688 H        37   U    0.0679
   1182 H4'         7.9611   20.2721   13.2395 H        37   U    0.1174
   1183 H3'        10.0406   20.2745   11.0131 H        37   U    0.0615
   1184 H2'        10.7408   18.1424   11.9296 H        37   U    0.0972
   1185 H1'         8.1814   17.1772   12.1371 H        37   U    0.1824
   1186 H3         10.1307   15.1305    8.5598 H        37   U    0.3154
   1187 H5          8.5397   18.6908    7.0404 H        37   U    0.1811
   1188 H6          8.1114   19.3744    9.3065 H        37   U    0.2188
   1189 HO2'        9.6151   17.3538   13.8534 H        37   U    0.4186
   1190 P          11.9440   21.2940   12.6650 P.3      38   A    1.1662
   1191 OP1        12.4190   22.1030   13.8220 O.co2    38   A   -0.7760
   1192 OP2        11.9710   21.8740   11.2980 O.co2    38   A   -0.7760
   1193 O5'        12.7840   19.9450   12.6590 O.3      38   A   -0.4989
   1194 C5'        12.9190   19.1740   13.8470 C.3      38   A    0.0558
   1195 C4'        13.5420   17.8450   13.5200 C.3      38   A    0.1065
   1196 O4'        12.6980   17.1890   12.5440 O.3      38   A   -0.3548
   1197 C3'        14.9050   17.9280   12.8490 C.3      38   A    0.2022
   1198 O3'        15.9190   17.9630   13.8410 O.3      38   A   -0.5246
   1199 C2'        14.9580   16.6190   12.0670 C.3      38   A    0.0670
   1200 O2'        15.3200   15.5300   12.9020 O.3      38   A   -0.6139
   1201 C1'        13.4960   16.4600   11.6320 C.3      38   A    0.0394
   1202 N9         13.1990   16.9490   10.2850 N.ar     38   A   -0.0251
   1203 C8         12.5610   18.1080    9.9190 C.ar     38   A    0.2006
   1204 N7         12.4080   18.2400    8.6240 N.ar     38   A   -0.6073
   1205 C5         12.9870   17.0940    8.1010 C.ar     38   A    0.0515
   1206 C6         13.1370   16.6220    6.7890 C.ar     38   A    0.7009
   1207 N6         12.7020   17.2760    5.7060 N.pl3    38   A   -0.9019
   1208 N1         13.7600   15.4390    6.6160 N.ar     38   A   -0.7615
   1209 C2         14.2170   14.7930    7.6940 C.ar     38   A    0.5875
   1210 N3         14.1390   15.1380    8.9770 N.ar     38   A   -0.6997
   1211 C4         13.4960   16.3010    9.1130 C.ar     38   A    0.3053
   1212 H5'        13.5536   19.7073   14.5548 H        38   A    0.0679
   1213 H5''       11.9358   19.0147   14.2898 H        38   A    0.0679
   1214 H4'        13.6091   17.2355   14.4212 H        38   A    0.1174
   1215 H3'        14.9690   18.7901   12.1851 H        38   A    0.0615
   1216 H2'        15.6221   16.6973   11.2062 H        38   A    0.0972
   1217 H1'        13.2241   15.4061   11.6913 H        38   A    0.2007
   1218 H8         12.2171   18.8428   10.6319 H        38   A    0.1553
   1219 H2         14.7209   13.8587    7.4952 H        38   A    0.0473
   1220 H61        12.7869   16.7413    4.8534 H        38   A    0.4115
   1221 H62        12.3255   18.2127    5.7379 H        38   A    0.4115
   1222 HO2'       16.2350   15.6267   13.1761 H        38   A    0.4186
   1223 P          17.1390   19.0010   13.7110 P.3      39   C    1.1662
   1224 OP1        17.8510   18.9850   15.0180 O.co2    39   C   -0.7760
   1225 OP2        16.6330   20.2870   13.1660 O.co2    39   C   -0.7760
   1226 O5'        18.0900   18.3830   12.5860 O.3      39   C   -0.4989
   1227 C5'        18.7520   17.1300   12.7780 C.3      39   C    0.0558
   1228 C4'        19.1670   16.5450   11.4420 C.3      39   C    0.1065
   1229 O4'        17.9650   16.2170   10.6900 O.3      39   C   -0.3548
   1230 C3'        19.9430   17.4610   10.4950 C.3      39   C    0.2022
   1231 O3'        21.3490   17.4510   10.7570 O.3      39   C   -0.5246
   1232 C2'        19.6880   16.7860    9.1510 C.3      39   C    0.0670
   1233 O2'        20.5010   15.6420    8.9600 O.3      39   C   -0.6139
   1234 C1'        18.2230   16.3640    9.2970 C.3      39   C    0.0066
   1235 N1         17.3010   17.3820    8.7640 N.am     39   C   -0.0484
   1236 C2         16.8860   17.2750    7.4410 C.2      39   C    0.7538
   1237 O2         17.3050   16.3240    6.7630 O.2      39   C   -0.6252
   1238 N3         16.0460   18.2100    6.9310 N.2      39   C   -0.7584
   1239 C4         15.6280   19.2180    7.6990 C.2      39   C    0.8185
   1240 N4         14.8100   20.1200    7.1600 N.pl3    39   C   -0.9530
   1241 C5         16.0350   19.3470    9.0600 C.2      39   C   -0.5215
   1242 C6         16.8660   18.4150    9.5440 C.2      39   C    0.0053
   1243 H5'        19.6378   17.2820   13.3947 H        39   C    0.0679
   1244 H5''       18.0764   16.4381   13.2809 H        39   C    0.0679
   1245 H4'        19.7426   15.6352   11.6124 H        39   C    0.1174
   1246 H3'        19.5446   18.4755   10.5105 H        39   C    0.0615
   1247 H2'        19.8103   17.4928    8.3302 H        39   C    0.0972
   1248 H1'        18.0593   15.4140    8.7882 H        39   C    0.2029
   1249 H5         15.6870   20.1634    9.6754 H        39   C    0.1928
   1250 H6         17.1981   18.4816   10.5695 H        39   C    0.1958
   1251 H41        14.5227   20.0289    6.1960 H        39   C    0.4234
   1252 H42        14.4769   20.8952    7.7152 H        39   C    0.4234
   1253 HO2'       19.9998   14.8527    9.1777 H        39   C    0.4186
   1254 P          22.0540   18.7180   11.4550 P.3      40   C    1.1662
   1255 OP1        21.1250   19.8760   11.4340 O.co2    40   C   -0.7760
   1256 OP2        23.4040   18.8560   10.8610 O.co2    40   C   -0.7760
   1257 O5'        22.2430   18.2550   12.9700 O.3      40   C   -0.4989
   1258 C5'        23.1790   17.2250   13.3160 C.3      40   C    0.0558
   1259 C4'        22.5970   16.3190   14.3840 C.3      40   C    0.1065
   1260 O4'        21.5540   15.4920   13.8000 O.3      40   C   -0.3548
   1261 C3'        23.5670   15.3290   15.0230 C.3      40   C    0.2022
   1262 O3'        24.2570   15.9210   16.1230 O.3      40   C   -0.5246
   1263 C2'        22.6300   14.2240   15.4950 C.3      40   C    0.0670
   1264 O2'        21.9550   14.5010   16.7080 O.3      40   C   -0.6139
   1265 C1'        21.6140   14.1820   14.3510 C.3      40   C    0.0066
   1266 N1         21.9950   13.2300   13.2870 N.am     40   C   -0.0484
   1267 C2         21.9660   11.8660   13.5680 C.2      40   C    0.7538
   1268 O2         21.6280   11.5010   14.6950 O.2      40   C   -0.6252
   1269 N3         22.3080   10.9800   12.6030 N.2      40   C   -0.7584
   1270 C4         22.6750   11.4150   11.3990 C.2      40   C    0.8185
   1271 N4         23.0090   10.5080   10.4750 N.pl3    40   C   -0.9530
   1272 C5         22.7170   12.7980   11.0840 C.2      40   C   -0.5215
   1273 C6         22.3690   13.6640   12.0510 C.2      40   C    0.0053
   1274 H5'        24.0936   17.6828   13.6929 H        40   C    0.0679
   1275 H5''       23.4100   16.6349   12.4292 H        40   C    0.0679
   1276 H4'        22.1582   16.9365   15.1677 H        40   C    0.1174
   1277 H3'        24.2724   14.9480   14.2845 H        40   C    0.0615
   1278 H2'        23.1640   13.2763   15.5646 H        40   C    0.0972
   1279 H1'        20.6351   13.9104   14.7461 H        40   C    0.2029
   1280 H5         23.0170   13.1414   10.1050 H        40   C    0.1928
   1281 H6         22.3862   14.7239   11.8444 H        40   C    0.1958
   1282 H41        22.9789    9.5237   10.6995 H        40   C    0.4234
   1283 H42        23.2914   10.8072    9.5526 H        40   C    0.4234
   1284 HO2'       22.5889   14.5282   17.4285 H        40   C    0.4186
   1285 P          25.6980   15.3480   16.5730 P.3      41   G    1.1662
   1286 OP1        26.2250   16.2770   17.6130 O.co2    41   G   -0.7760
   1287 OP2        26.4790   15.0950   15.3520 O.co2    41   G   -0.7760
   1288 O5'        25.3770   13.9440   17.2540 O.3      41   G   -0.4989
   1289 C5'        24.9070   13.8610   18.5960 C.3      41   G    0.0558
   1290 C4'        24.9040   12.4250   19.0610 C.3      41   G    0.1065
   1291 O4'        24.0330   11.6350   18.1990 O.3      41   G   -0.3548
   1292 C3'        26.2310   11.6920   18.9530 C.3      41   G    0.2022
   1293 O3'        27.0810   12.0120   20.0450 O.3      41   G   -0.5246
   1294 C2'        25.7610   10.2500   19.0070 C.3      41   G    0.0670
   1295 O2'        25.3290    9.8750   20.3030 O.3      41   G   -0.6139
   1296 C1'        24.5550   10.3210   18.0690 C.3      41   G    0.0191
   1297 N9         24.8880   10.1080   16.6620 N.ar     41   G    0.0492
   1298 C8         25.0490   11.0570   15.6870 C.ar     41   G    0.1374
   1299 N7         25.2720   10.5480   14.5010 N.ar     41   G   -0.5709
   1300 C5         25.2660    9.1810   14.7100 C.ar     41   G    0.1744
   1301 C6         25.3990    8.1090   13.7940 C.2      41   G    0.4770
   1302 O6         25.5320    8.1500   12.5670 O.2      41   G   -0.5597
   1303 N1         25.3330    6.8810   14.4390 N.am     41   G   -0.4787
   1304 C2         25.1420    6.6980   15.7840 C.2      41   G    0.7657
   1305 N2         25.0870    5.4200   16.2130 N.pl3    41   G   -0.9672
   1306 N3         25.0020    7.6870   16.6460 N.2      41   G   -0.6323
   1307 C4         25.0660    8.8900   16.0460 C.ar     41   G    0.1222
   1308 H5'        25.5600   14.4471   19.2427 H        41   G    0.0679
   1309 H5''       23.8940   14.2598   18.6491 H        41   G    0.0679
   1310 H4'        24.5427   12.3753   20.0882 H        41   G    0.1174
   1311 H3'        26.7193   11.9076   18.0026 H        41   G    0.0615
   1312 H2'        26.5219    9.5681   18.6274 H        41   G    0.0972
   1313 H1'        23.8040    9.5956   18.3819 H        41   G    0.2006
   1314 H8         24.9972   12.1188   15.8774 H        41   G    0.1640
   1315 H1         25.4342    6.0532   13.8693 H        41   G    0.3424
   1316 H21        25.1893    4.6613   15.5542 H        41   G    0.4364
   1317 H22        24.9435    5.2220   17.1929 H        41   G    0.4364
   1318 HO2'       25.9818    9.2961   20.7034 H        41   G    0.4186
   1319 P          28.6630   12.1140   19.8100 P.3      42   G    1.1662
   1320 OP1        29.1940   12.8210   21.0040 O.co2    42   G   -0.7760
   1321 OP2        28.9570   12.6240   18.4570 O.co2    42   G   -0.7760
   1322 O5'        29.1700   10.6010   19.8440 O.3      42   G   -0.4989
   1323 C5'        29.1250    9.8440   21.0550 C.3      42   G    0.0558
   1324 C4'        29.1900    8.3540   20.7630 C.3      42   G    0.1065
   1325 O4'        28.0580    7.9520   19.9400 O.3      42   G   -0.3548
   1326 C3'        30.3930    7.8230   19.9940 C.3      42   G    0.2022
   1327 O3'        31.5090    7.6560   20.8640 O.3      42   G   -0.5246
   1328 C2'        29.8510    6.4840   19.5200 C.3      42   G    0.0670
   1329 O2'        29.7150    5.5640   20.5910 O.3      42   G   -0.6139
   1330 C1'        28.4570    6.9080   19.0560 C.3      42   G    0.0191
   1331 N9         28.4910    7.4430   17.7000 N.ar     42   G    0.0492
   1332 C8         28.5220    8.7670   17.3330 C.ar     42   G    0.1374
   1333 N7         28.5860    8.9380   16.0410 N.ar     42   G   -0.5709
   1334 C5         28.5880    7.6530   15.5270 C.ar     42   G    0.1744
   1335 C6         28.6500    7.2050   14.1860 C.2      42   G    0.4770
   1336 O6         28.7250    7.8830   13.1460 O.2      42   G   -0.5597
   1337 N1         28.6240    5.8200   14.1090 N.am     42   G   -0.4787
   1338 C2         28.5670    4.9690   15.1890 C.2      42   G    0.7657
   1339 N2         28.5780    3.6580   14.9090 N.pl3    42   G   -0.9672
   1340 N3         28.5140    5.3740   16.4440 N.2      42   G   -0.6323
   1341 C4         28.5250    6.7190   16.5390 C.ar     42   G    0.1222
   1342 H5'        29.9721   10.1224   21.6819 H        42   G    0.0679
   1343 H5''       28.1981   10.0665   21.5837 H        42   G    0.0679
   1344 H4'        29.1287    7.8187   21.7105 H        42   G    0.1174
   1345 H3'        30.6411    8.4696   19.1523 H        42   G    0.0615
   1346 H2'        30.4434    6.0720   18.7031 H        42   G    0.0972
   1347 H1'        27.7630    6.0697   19.1180 H        42   G    0.2006
   1348 H8         28.4961    9.5821   18.0411 H        42   G    0.1640
   1349 H1         28.6488    5.4040   13.1890 H        42   G    0.3424
   1350 H21        28.6223    3.3470   13.9491 H        42   G    0.4364
   1351 H22        28.5420    2.9813   15.6580 H        42   G    0.4364
   1352 HO2'       29.2233    4.7955   20.2922 H        42   G    0.4186
   1353 P          32.9900    7.6090   20.2640 P.3      43   G    1.1662
   1354 OP1        33.8990    7.6370   21.4360 O.co2    43   G   -0.7760
   1355 OP2        33.1120    8.6580   19.2200 O.co2    43   G   -0.7760
   1356 O5'        33.1030    6.1990   19.5200 O.3      43   G   -0.4989
   1357 C5'        33.0650    4.9710   20.2400 C.3      43   G    0.0558
   1358 C4'        33.0190    3.7920   19.2830 C.3      43   G    0.1065
   1359 O4'        31.8440    3.8800   18.4250 O.3      43   G   -0.3548
   1360 C3'        34.1630    3.6780   18.2900 C.3      43   G    0.2022
   1361 O3'        35.3150    3.0960   18.8960 O.3      43   G   -0.5246
   1362 C2'        33.5520    2.7520   17.2500 C.3      43   G    0.0670
   1363 O2'        33.4790    1.3960   17.6850 O.3      43   G   -0.6139
   1364 C1'        32.1540    3.3610   17.1320 C.3      43   G    0.0191
   1365 N9         32.0860    4.4530   16.1520 N.ar     43   G    0.0492
   1366 C8         31.9870    5.8010   16.4030 C.ar     43   G    0.1374
   1367 N7         31.9070    6.5260   15.3140 N.ar     43   G   -0.5709
   1368 C5         31.9640    5.5980   14.2830 C.ar     43   G    0.1744
   1369 C6         31.9190    5.7930   12.8920 C.2      43   G    0.4770
   1370 O6         31.7860    6.8670   12.2720 O.2      43   G   -0.5597
   1371 N1         32.0410    4.5910   12.2020 N.am     43   G   -0.4787
   1372 C2         32.1720    3.3490   12.7870 C.2      43   G    0.7657
   1373 N2         32.2840    2.2900   11.9490 N.pl3    43   G   -0.9672
   1374 N3         32.1950    3.1540   14.1040 N.2      43   G   -0.6323
   1375 C4         32.0930    4.3150   14.7810 C.ar     43   G    0.1222
   1376 H5'        32.1774    4.9539   20.8724 H        43   G    0.0679
   1377 H5''       33.9543    4.8926   20.8654 H        43   G    0.0679
   1378 H4'        32.9631    2.8705   19.8625 H        43   G    0.1174
   1379 H3'        34.4000    4.6492   17.8556 H        43   G    0.0615
   1380 H2'        34.0875    2.8264   16.3035 H        43   G    0.0972
   1381 H1'        31.4366    2.5845   16.8666 H        43   G    0.2006
   1382 H8         31.9762    6.2207   17.3981 H        43   G    0.1640
   1383 H1         32.0330    4.6312   11.1928 H        43   G    0.3424
   1384 H21        32.2681    2.4332   10.9493 H        43   G    0.4364
   1385 H22        32.3834    1.3575   12.3241 H        43   G    0.4364
   1386 HO2'       34.3651    1.0330   17.7525 H        43   G    0.4186
   1387 P          36.7740    3.6520   18.5460 P.3      44   C    1.1662
   1388 OP1        37.7570    2.8910   19.3540 O.co2    44   C   -0.7760
   1389 OP2        36.8020    5.1290   18.5690 O.co2    44   C   -0.7760
   1390 O5'        37.0000    3.2200   17.0330 O.3      44   C   -0.4989
   1391 C5'        37.1640    1.8630   16.6900 C.3      44   C    0.0558
   1392 C4'        37.0060    1.6910   15.2090 C.3      44   C    0.1065
   1393 O4'        35.6940    2.1660   14.7890 O.3      44   C   -0.3548
   1394 C3'        37.9590    2.4930   14.3410 C.3      44   C    0.2022
   1395 O3'        39.2470    1.8850   14.2700 O.3      44   C   -0.5246
   1396 C2'        37.2280    2.4140   13.0140 C.3      44   C    0.0670
   1397 O2'        37.2950    1.1200   12.4360 O.3      44   C   -0.6139
   1398 C1'        35.7970    2.7060   13.4700 C.3      44   C    0.0066
   1399 N1         35.5370    4.1570   13.5220 N.am     44   C   -0.0484
   1400 C2         35.3140    4.8090   12.3310 C.2      44   C    0.7538
   1401 O2         35.3410    4.1210   11.2780 O.2      44   C   -0.6252
   1402 N3         35.0780    6.1490   12.3310 N.2      44   C   -0.7584
   1403 C4         35.0560    6.8190   13.4870 C.2      44   C    0.8185
   1404 N4         34.7840    8.1290   13.4590 N.pl3    44   C   -0.9530
   1405 C5         35.2990    6.1690   14.7370 C.2      44   C   -0.5215
   1406 C6         35.5230    4.8440   14.7050 C.2      44   C    0.0053
   1407 H5'        36.4119    1.2660   17.2058 H        44   C    0.0679
   1408 H5''       38.1581    1.5310   16.9894 H        44   C    0.0679
   1409 H4'        37.0998    0.6339   14.9601 H        44   C    0.1174
   1410 H3'        38.0311    3.5239   14.6877 H        44   C    0.0615
   1411 H2'        37.5848    3.1754   12.3205 H        44   C    0.0972
   1412 H1'        35.0829    2.2186   12.8062 H        44   C    0.2029
   1413 H5         35.3024    6.7187   15.6666 H        44   C    0.1928
   1414 H6         35.6949    4.3125   15.6293 H        44   C    0.1958
   1415 H41        34.6067    8.5892   12.5776 H        44   C    0.4234
   1416 H42        34.7560    8.6574   14.3193 H        44   C    0.4234
   1417 HO2'       38.1946    0.9421   12.1518 H        44   C    0.4186
   1418 P          40.5580    2.7920   14.0700 P.3      45   A    1.1662
   1419 OP1        41.7450    1.9190   14.2720 O.co2    45   A   -0.7760
   1420 OP2        40.4080    4.0120   14.9010 O.co2    45   A   -0.7760
   1421 O5'        40.5260    3.2070   12.5330 O.3      45   A   -0.4989
   1422 C5'        40.5900    2.2240   11.5060 C.3      45   A    0.0558
   1423 C4'        40.1810    2.8360   10.1850 C.3      45   A    0.1065
   1424 O4'        38.8760    3.4540   10.3460 O.3      45   A   -0.3548
   1425 C3'        41.0770    3.9560    9.6740 C.3      45   A    0.2022
   1426 O3'        42.1360    3.4110    8.8910 O.3      45   A   -0.5246
   1427 C2'        40.1290    4.7400    8.7790 C.3      45   A    0.0670
   1428 O2'        39.9730    4.1460    7.4960 O.3      45   A   -0.6139
   1429 C1'        38.8260    4.6490    9.5720 C.3      45   A    0.0394
   1430 N9         38.6280    5.7820   10.4760 N.ar     45   A   -0.0251
   1431 C8         38.6540    5.7970   11.8480 C.ar     45   A    0.2006
   1432 N7         38.3370    6.9620   12.3680 N.ar     45   A   -0.6073
   1433 C5         38.1140    7.7670   11.2610 C.ar     45   A    0.0515
   1434 C6         37.7190    9.0980   11.1410 C.ar     45   A    0.7009
   1435 N6         37.4470    9.8870   12.1960 N.pl3    45   A   -0.9019
   1436 N1         37.5910    9.6060    9.9010 N.ar     45   A   -0.7615
   1437 C2         37.8340    8.8070    8.8590 C.ar     45   A    0.5875
   1438 N3         38.1950    7.5330    8.8450 N.ar     45   A   -0.6997
   1439 C4         38.3170    7.0630   10.0940 C.ar     45   A    0.3053
   1440 H5'        41.6097    1.8466   11.4295 H        45   A    0.0679
   1441 H5''       39.9165    1.4020   11.7486 H        45   A    0.0679
   1442 H4'        40.1176    2.0527    9.4297 H        45   A    0.1174
   1443 H3'        41.4570    4.5697   10.4907 H        45   A    0.0615
   1444 H2'        40.4534    5.7766    8.6875 H        45   A    0.0972
   1445 H1'        37.9870    4.5925    8.8784 H        45   A    0.2007
   1446 H8         38.9105    4.9336   12.4440 H        45   A    0.1553
   1447 H2         37.7197    9.2658    7.8880 H        45   A    0.0473
   1448 H61        37.0956   10.7501   11.8066 H        45   A    0.4115
   1449 H62        37.5688    9.6630   13.1733 H        45   A    0.4115
   1450 HO2'       39.9541    4.8330    6.8257 H        45   A    0.4186
   1451 P          43.5650    4.1320    8.8530 P.3      46   C    1.1662
   1452 OP1        44.4160    3.2890    7.9730 O.co2    46   C   -0.7760
   1453 OP2        44.0100    4.4160   10.2270 O.co2    46   C   -0.7760
   1454 O5'        43.3130    5.5370    8.1500 O.3      46   C   -0.4989
   1455 C5'        42.8610    5.6470    6.8070 C.3      46   C    0.0558
   1456 C4'        42.4870    7.0850    6.5240 C.3      46   C    0.1065
   1457 O4'        41.2970    7.4230    7.3010 O.3      46   C   -0.3548
   1458 C3'        43.5090    8.1000    7.0140 C.3      46   C    0.2022
   1459 O3'        44.5700    8.2380    6.0850 O.3      46   C   -0.5246
   1460 C2'        42.6610    9.3600    7.1390 C.3      46   C    0.0670
   1461 O2'        42.3350    9.9540    5.8900 O.3      46   C   -0.6139
   1462 C1'        41.3820    8.7750    7.7390 C.3      46   C    0.0066
   1463 N1         41.3790    8.7810    9.2070 N.am     46   C   -0.0484
   1464 C2         40.9960    9.9490    9.8790 C.2      46   C    0.7538
   1465 O2         40.7590   10.9690    9.2290 O.2      46   C   -0.6252
   1466 N3         40.9110    9.9450   11.2180 N.2      46   C   -0.7584
   1467 C4         41.2330    8.8420   11.9030 C.2      46   C    0.8185
   1468 N4         41.1170    8.8790   13.2380 N.pl3    46   C   -0.9530
   1469 C5         41.6820    7.6510   11.2500 C.2      46   C   -0.5215
   1470 C6         41.7310    7.6600    9.9120 C.2      46   C    0.0053
   1471 H5'        43.6557    5.3369    6.1285 H        46   C    0.0679
   1472 H5''       41.9892    5.0088    6.6627 H        46   C    0.0679
   1473 H4'        42.2961    7.2239    5.4599 H        46   C    0.1174
   1474 H3'        43.8962    7.8062    7.9896 H        46   C    0.0615
   1475 H2'        43.1210   10.0822    7.8134 H        46   C    0.0972
   1476 H1'        40.5200    9.3315    7.3711 H        46   C    0.2029
   1477 H5         41.9707    6.7772   11.8152 H        46   C    0.1928
   1478 H6         42.0513    6.7746    9.3830 H        46   C    0.1958
   1479 H41        40.7975    9.7217   13.6940 H        46   C    0.4234
   1480 H42        41.3491    8.0642   13.7878 H        46   C    0.4234
   1481 HO2'       42.8162   10.7789    5.7921 H        46   C    0.4186
   1482 P          46.0020    8.7540    6.5840 P.3      47   C    1.1662
   1483 OP1        46.9850    8.4330    5.5100 O.co2    47   C   -0.7760
   1484 OP2        46.2540    8.2790    7.9810 O.co2    47   C   -0.7760
   1485 O5'        45.8560   10.3370    6.6890 O.3      47   C   -0.4989
   1486 C5'        45.5120   11.1300    5.5640 C.3      47   C    0.0558
   1487 C4'        45.0900   12.5070    6.0260 C.3      47   C    0.1065
   1488 O4'        43.9730   12.3740    6.9480 O.3      47   C   -0.3548
   1489 C3'        46.1400   13.2640    6.8210 C.3      47   C    0.2022
   1490 O3'        46.9980   13.9640    5.9320 O.3      47   C   -0.5246
   1491 C2'        45.2750   14.2440    7.6110 C.3      47   C    0.0670
   1492 O2'        44.8510   15.3030    6.7820 O.3      47   C   -0.6139
   1493 C1'        44.0610   13.3760    7.9490 C.3      47   C    0.0066
   1494 N1         44.1230   12.7030    9.2560 N.am     47   C   -0.0484
   1495 C2         43.6550   13.3840   10.3810 C.2      47   C    0.7538
   1496 O2         43.3170   14.5800   10.2630 O.2      47   C   -0.6252
   1497 N3         43.5790   12.7310   11.5640 N.2      47   C   -0.7584
   1498 C4         43.9820   11.4540   11.6470 C.2      47   C    0.8185
   1499 N4         43.8400   10.8270   12.8200 N.pl3    47   C   -0.9530
   1500 C5         44.5290   10.7630   10.5340 C.2      47   C   -0.5215
   1501 C6         44.5800   11.4200    9.3640 C.2      47   C    0.0053
   1502 H5'        46.3750   11.2173    4.9039 H        47   C    0.0679
   1503 H5''       44.6892   10.6594    5.0258 H        47   C    0.0679
   1504 H4'        44.7841   13.1026    5.1659 H        47   C    0.1174
   1505 H3'        46.6998   12.6008    7.4804 H        47   C    0.0615
   1506 H2'        45.7809   14.6044    8.5067 H        47   C    0.0972
   1507 H1'        43.1634   13.9933    7.9113 H        47   C    0.2029
   1508 H5         44.8898    9.7491   10.6247 H        47   C    0.1928
   1509 H6         44.9887   10.9264    8.4947 H        47   C    0.1958
   1510 H41        43.4453   11.3170   13.6100 H        47   C    0.4234
   1511 H42        44.1275    9.8635   12.9157 H        47   C    0.4234
   1512 HO2'       44.0242   15.6595    7.1152 H        47   C    0.4186
   1513 P          48.5670   13.6420    5.9130 P.3      48   G    1.1662
   1514 OP1        49.0770   14.1870    4.6240 O.co2    48   G   -0.7760
   1515 OP2        48.7700   12.2060    6.2380 O.co2    48   G   -0.7760
   1516 O5'        49.1350   14.5220    7.1140 O.3      48   G   -0.4989
   1517 C5'        50.5080   14.9050    7.1540 C.3      48   G    0.0558
   1518 C4'        50.8800   15.3800    8.5380 C.3      48   G    0.1065
   1519 O4'        50.6400   14.3040    9.4850 O.3      48   G   -0.3548
   1520 C3'        52.3440   15.7670    8.7210 C.3      48   G    0.2022
   1521 O3'        52.4250   16.8110    9.6810 O.3      48   G   -0.5246
   1522 C2'        52.9470   14.4920    9.2970 C.3      48   G    0.0670
   1523 O2'        54.1080   14.7420   10.0580 O.3      48   G   -0.6139
   1524 C1'        51.8140   14.0380   10.2130 C.3      48   G    0.0191
   1525 N9         51.8180   12.6210   10.5630 N.ar     48   G    0.0492
   1526 C8         52.2720   11.5690    9.8020 C.ar     48   G    0.1374
   1527 N7         52.1380   10.4140   10.3940 N.ar     48   G   -0.5709
   1528 C5         51.5620   10.7220   11.6220 C.ar     48   G    0.1744
   1529 C6         51.1820    9.8780   12.6970 C.2      48   G    0.4770
   1530 O6         51.2810    8.6430   12.7820 O.2      48   G   -0.5597
   1531 N1         50.6370   10.6080   13.7540 N.am     48   G   -0.4787
   1532 C2         50.4820   11.9690   13.7700 C.2      48   G    0.7657
   1533 N2         49.9600   12.4970   14.8840 N.pl3    48   G   -0.9672
   1534 N3         50.8210   12.7640   12.7680 N.2      48   G   -0.6323
   1535 C4         51.3550   12.0780   11.7370 C.ar     48   G    0.1222
   1536 H5'        50.6772   15.7110    6.4399 H        48   G    0.0679
   1537 H5''       51.1290   14.0500    6.8869 H        48   G    0.0679
   1538 H4'        50.2523   16.2313    8.8016 H        48   G    0.1174
   1539 H3'        52.8112   16.0465    7.7767 H        48   G    0.0615
   1540 H2'        53.1392   13.7582    8.5142 H        48   G    0.0972
   1541 H1'        51.8206   14.6372   11.1235 H        48   G    0.2006
   1542 H8         52.6959   11.6869    8.8157 H        48   G    0.1640
   1543 H1         50.3339   10.0941   14.5689 H        48   G    0.3424
   1544 H21        49.7013   11.8969   15.6541 H        48   G    0.4364
   1545 H22        49.8249   13.4954   14.9543 H        48   G    0.4364
   1546 HO2'       54.8169   15.0271    9.4768 H        48   G    0.4186
   1547 P          53.1700   18.1800    9.3130 P.3      49   U    1.1662
   1548 OP1        53.4100   18.2000    7.8460 O.co2    49   U   -0.7760
   1549 OP2        54.3070   18.3360   10.2460 O.co2    49   U   -0.7760
   1550 O5'        52.1130   19.3140    9.6560 O.3      49   U   -0.4989
   1551 C5'        50.9090   19.4480    8.9130 C.3      49   U    0.0558
   1552 C4'        49.9350   20.2790    9.6980 C.3      49   U    0.1065
   1553 O4'        49.1120   19.3800   10.4950 O.3      49   U   -0.3548
   1554 C3'        50.6190   21.2100   10.6970 C.3      49   U    0.2022
   1555 O3'        49.8340   22.3680   10.8990 O.3      49   U   -0.5246
   1556 C2'        50.6480   20.3630   11.9630 C.3      49   U    0.0670
   1557 O2'        50.7390   21.1210   13.1500 O.3      49   U   -0.6139
   1558 C1'        49.2890   19.6740   11.8680 C.3      49   U    0.0674
   1559 N1         49.2030   18.4230   12.6340 N.am     49   U    0.0418
   1560 C2         48.5680   18.4790   13.8590 C.2      49   U    0.4687
   1561 O2         48.0870   19.5120   14.3000 O.2      49   U   -0.5477
   1562 N3         48.5140   17.2880   14.5450 N.am     49   U   -0.3549
   1563 C4         49.0290   16.0730   14.1360 C.2      49   U    0.5952
   1564 O4         48.9570   15.0970   14.8910 O.2      49   U   -0.5761
   1565 C5         49.6640   16.0960   12.8500 C.2      49   U   -0.3635
   1566 C6         49.7270   17.2440   12.1600 C.2      49   U   -0.1126
   1567 H5'        51.1202   19.9357    7.9614 H        49   U    0.0679
   1568 H5''       50.4821   18.4619    8.7302 H        49   U    0.0679
   1569 H4'        49.3068   20.8567    9.0200 H        49   U    0.1174
   1570 H3'        51.6266   21.4677   10.3709 H        49   U    0.0615
   1571 H2'        51.4530   19.6297   11.9145 H        49   U    0.0972
   1572 H1'        48.5082   20.3591   12.1985 H        49   U    0.1824
   1573 H3         48.0492   17.3033   15.4416 H        49   U    0.3154
   1574 H5         50.0896   15.1924   12.4392 H        49   U    0.1811
   1575 H6         50.2086   17.2422   11.1933 H        49   U    0.2188
   1576 HO2'       51.5984   21.5466   13.1933 H        49   U    0.4186
   1577 P          50.3100   23.7760   10.2860 P.3      50   A    1.1662
   1578 OP1        51.7480   23.6730    9.9450 O.co2    50   A   -0.7760
   1579 OP2        49.8280   24.8360   11.2050 O.co2    50   A   -0.7760
   1580 O5'        49.5200   23.8970    8.9150 O.3      50   A   -0.4989
   1581 C5'        48.1120   24.0500    8.8970 C.3      50   A    0.0558
   1582 C4'        47.5680   23.5020    7.6100 C.3      50   A    0.1065
   1583 O4'        47.8420   22.0800    7.5410 O.3      50   A   -0.3548
   1584 C3'        46.0720   23.6800    7.4200 C.3      50   A    0.2022
   1585 O3'        45.8890   24.8140    6.5740 O.3      50   A   -0.5246
   1586 C2'        45.6640   22.3970    6.7000 C.3      50   A    0.0670
   1587 O2'        45.9090   22.4930    5.3090 O.3      50   A   -0.6139
   1588 C1'        46.6440   21.3800    7.2860 C.3      50   A    0.0394
   1589 N9         46.2580   20.7040    8.5230 N.ar     50   A   -0.0251
   1590 C8         45.7110   21.2290    9.6600 C.ar     50   A    0.2006
   1591 N7         45.5710   20.3580   10.6300 N.ar     50   A   -0.6073
   1592 C5         46.0440   19.1750   10.0870 C.ar     50   A    0.0515
   1593 C6         46.1880   17.8830   10.6160 C.ar     50   A    0.7009
   1594 N6         45.8790   17.5680   11.8800 N.pl3    50   A   -0.9019
   1595 N1         46.6830   16.9240    9.8080 N.ar     50   A   -0.7615
   1596 C2         47.0310   17.2570    8.5590 C.ar     50   A    0.5875
   1597 N3         46.9590   18.4430    7.9530 N.ar     50   A   -0.6997
   1598 C4         46.4490   19.3680    8.7820 C.ar     50   A    0.3053
   1599 H5'        47.8601   25.1074    8.9773 H        50   A    0.0679
   1600 H5''       47.6765   23.5076    9.7362 H        50   A    0.0679
   1601 H4'        48.0811   23.9922    6.7826 H        50   A    0.1174
   1602 H3'        45.5525   23.7948    8.3713 H        50   A    0.0615
   1603 H2'        44.6289   22.1277    6.9101 H        50   A    0.0972
   1604 H1'        46.8445   20.6217    6.5291 H        50   A    0.2007
   1605 H8         45.4209   22.2653    9.7511 H        50   A    0.1553
   1606 H2         47.4257   16.4518    7.9572 H        50   A    0.0473
   1607 HO2'       45.0794   22.6321    4.8463 H        50   A    0.4186
   1608 H61        46.1164   16.6022   12.0559 H        50   A    0.4115
   1609 H62        45.4710   18.1995   12.5544 H        50   A    0.4115
   1610 P          44.5880   25.7320    6.7330 P.3      51   A    1.1662
   1611 OP1        44.7650   26.9600    5.9100 O.co2    51   A   -0.7760
   1612 OP2        44.2750   25.8670    8.1920 O.co2    51   A   -0.7760
   1613 O5'        43.4360   24.8730    6.0610 O.3      51   A   -0.4989
   1614 C5'        43.4140   24.6460    4.6560 C.3      51   A    0.0558
   1615 C4'        42.4310   23.5480    4.3300 C.3      51   A    0.1065
   1616 O4'        42.7980   22.3480    5.0860 O.3      51   A   -0.3548
   1617 C3'        40.9740   23.8340    4.7080 C.3      51   A    0.2022
   1618 O3'        40.1400   23.1060    3.8090 O.3      51   A   -0.5246
   1619 C2'        40.8850   23.1710    6.0780 C.3      51   A    0.0670
   1620 O2'        39.5680   22.8850    6.5250 O.3      51   A   -0.6139
   1621 C1'        41.6560   21.8940    5.7830 C.3      51   A    0.0394
   1622 N9         42.0710   21.1020    6.9370 N.ar     51   A   -0.0251
   1623 C8         42.1500   21.4800    8.2600 C.ar     51   A    0.2006
   1624 N7         42.4910   20.5010    9.0670 N.ar     51   A   -0.6073
   1625 C5         42.6550   19.4110    8.2190 C.ar     51   A    0.0515
   1626 C6         42.9800   18.0580    8.4590 C.ar     51   A    0.7009
   1627 N6         43.1710   17.5420    9.6720 N.pl3    51   A   -0.9019
   1628 N1         43.0800   17.2380    7.3920 N.ar     51   A   -0.7615
   1629 C2         42.8280   17.7410    6.1730 C.ar     51   A    0.5875
   1630 N3         42.4920   18.9840    5.8250 N.ar     51   A   -0.6997
   1631 C4         42.4250   19.7750    6.9050 C.ar     51   A    0.3053
   1632 H5'        44.4088   24.3517    4.3217 H        51   A    0.0679
   1633 H5''       43.1165   25.5620    4.1456 H        51   A    0.0679
   1634 H4'        42.4851   23.3272    3.2640 H        51   A    0.1174
   1635 H3'        40.7427   24.8988    4.7350 H        51   A    0.0615
   1636 H2'        41.4141   23.7679    6.8209 H        51   A    0.0972
   1637 H1'        41.0616   21.2670    5.1185 H        51   A    0.2007
   1638 H8         41.9506   22.4852    8.6008 H        51   A    0.1553
   1639 H2         42.9090   17.0382    5.3570 H        51   A    0.0473
   1640 H61        42.8756   18.1485   10.4237 H        51   A    0.4115
   1641 H62        43.5740   16.6287    9.8259 H        51   A    0.4115
   1642 HO2'       39.0702   23.7025    6.5994 H        51   A    0.4186
   1643 P          38.8860   23.8020    3.1070 P.3      52   A    1.1662
   1644 OP1        39.2750   24.1080    1.6990 O.co2    52   A   -0.7760
   1645 OP2        38.3050   24.8660    3.9530 O.co2    52   A   -0.7760
   1646 O5'        37.8040   22.6360    3.0110 O.3      52   A   -0.4989
   1647 C5'        37.4270   21.8680    4.1580 C.3      52   A    0.0558
   1648 C4'        37.7190   20.4050    3.9030 C.3      52   A    0.1065
   1649 O4'        39.0670   20.0860    4.3450 O.3      52   A   -0.3548
   1650 C3'        36.8860   19.4240    4.6850 C.3      52   A    0.2022
   1651 O3'        35.5640   19.3180    4.1770 O.3      52   A   -0.5246
   1652 C2'        37.7200   18.1630    4.5260 C.3      52   A    0.0670
   1653 O2'        37.6650   17.6060    3.2310 O.3      52   A   -0.6139
   1654 C1'        39.1130   18.7300    4.8010 C.3      52   A    0.0394
   1655 N9         39.3100   18.7130    6.2560 N.ar     52   A   -0.0251
   1656 C8         39.2200   19.7260    7.1730 C.ar     52   A    0.2006
   1657 N7         39.3260   19.3210    8.4190 N.ar     52   A   -0.6073
   1658 C5         39.5180   17.9550    8.3070 C.ar     52   A    0.0515
   1659 C6         39.6690   16.9300    9.2620 C.ar     52   A    0.7009
   1660 N6         39.6100   17.1240   10.5850 N.pl3    52   A   -0.9019
   1661 N1         39.8600   15.6700    8.8020 N.ar     52   A   -0.7615
   1662 C2         39.8720   15.4640    7.4910 C.ar     52   A    0.5875
   1663 N3         39.7200   16.3340    6.5020 N.ar     52   A   -0.6997
   1664 C4         39.5460   17.5740    6.9820 C.ar     52   A    0.3053
   1665 H5'        36.3616   21.9981    4.3482 H        52   A    0.0679
   1666 H5''       37.9949   22.2063    5.0247 H        52   A    0.0679
   1667 H4'        37.6254   20.1949    2.8376 H        52   A    0.1174
   1668 H3'        36.8565   19.7179    5.7342 H        52   A    0.0615
   1669 H2'        37.4484   17.4220    5.2779 H        52   A    0.0972
   1670 H1'        39.8862   18.1602    4.2856 H        52   A    0.2007
   1671 H8         39.0755   20.7604    6.8983 H        52   A    0.1553
   1672 H2         40.0281   14.4399    7.1856 H        52   A    0.0473
   1673 H61        39.5662   18.0981   10.8484 H        52   A    0.4115
   1674 H62        39.6094   16.3688   11.2556 H        52   A    0.4115
   1675 HO2'       36.7864   17.2539    3.0707 H        52   A    0.4186
   1676 P          34.3420   19.3420    5.1930 P.3      53   U    1.1662
   1677 OP1        33.1090   18.9990    4.4260 O.co2    53   U   -0.7760
   1678 OP2        34.4030   20.6070    5.9580 O.co2    53   U   -0.7760
   1679 O5'        34.7070   18.1710    6.2060 O.3      53   U   -0.4989
   1680 C5'        34.0630   16.9100    6.1530 C.3      53   U    0.0558
   1681 C4'        34.9470   15.8950    5.4590 C.3      53   U    0.1065
   1682 O4'        36.2270   15.7360    6.1320 O.3      53   U   -0.3548
   1683 C3'        34.3640   14.4880    5.4080 C.3      53   U    0.2022
   1684 O3'        33.4690   14.4150    4.2930 O.3      53   U   -0.5246
   1685 C2'        35.6200   13.6550    5.2120 C.3      53   U    0.0670
   1686 O2'        36.0920   13.7450    3.8810 O.3      53   U   -0.6139
   1687 C1'        36.5970   14.3680    6.1510 C.3      53   U    0.0674
   1688 N1         36.5420   13.9050    7.5450 N.am     53   U    0.0418
   1689 C2         36.9410   12.6030    7.8240 C.2      53   U    0.4687
   1690 O2         37.3130   11.8170    6.9570 O.2      53   U   -0.5477
   1691 N3         36.8880   12.2530    9.1530 N.am     53   U   -0.3549
   1692 C4         36.4910   13.0530   10.2070 C.2      53   U    0.5952
   1693 O4         36.4810   12.5870   11.3560 O.2      53   U   -0.5761
   1694 C5         36.0880   14.3720    9.8330 C.2      53   U   -0.3635
   1695 C6         36.1220   14.7420    8.5440 C.2      53   U   -0.1126
   1696 H5'        33.1274   17.0075    5.6023 H        53   U    0.0679
   1697 H5''       33.8511   16.5704    7.1668 H        53   U    0.0679
   1698 H4'        35.1300   16.2329    4.4390 H        53   U    0.1174
   1699 H3'        33.8594   14.2329    6.3399 H        53   U    0.0615
   1700 H2'        35.4628   12.6187    5.5110 H        53   U    0.0972
   1701 H1'        37.6128   14.2598    5.7707 H        53   U    0.1824
   1702 H3         37.1693   11.3106    9.3829 H        53   U    0.3154
   1703 H5         35.7564   15.0702   10.5873 H        53   U    0.1811
   1704 H6         35.8051   15.7411    8.2835 H        53   U    0.2188
   1705 HO2'       35.4791   13.2979    3.2927 H        53   U    0.4186
   1706 P          32.1550   13.4960    4.3660 P.3      54   G    1.1662
   1707 OP1        31.3620   13.7860    3.1440 O.co2    54   G   -0.7760
   1708 OP2        31.5180   13.6300    5.6930 O.co2    54   G   -0.7760
   1709 O5'        32.7060   12.0070    4.2600 O.3      54   G   -0.4989
   1710 C5'        33.1890   11.5060    3.0130 C.3      54   G    0.0558
   1711 C4'        33.8090   10.1420    3.2060 C.3      54   G    0.1065
   1712 O4'        34.8290   10.2350    4.2350 O.3      54   G   -0.3548
   1713 C3'        32.8360    9.1100    3.7530 C.3      54   G    0.2022
   1714 O3'        32.1070    8.5080    2.7020 O.3      54   G   -0.5246
   1715 C2'        33.7840    8.1120    4.3890 C.3      54   G    0.0670
   1716 O2'        34.3770    7.2710    3.4190 O.3      54   G   -0.6139
   1717 C1'        34.8090    9.0530    5.0280 C.3      54   G    0.0191
   1718 N9         34.4640    9.4150    6.4070 N.ar     54   G    0.0492
   1719 C8         33.9760   10.6080    6.8740 C.ar     54   G    0.1374
   1720 N7         33.8220   10.6300    8.1730 N.ar     54   G   -0.5709
   1721 C5         34.2300    9.3660    8.5870 C.ar     54   G    0.1744
   1722 C6         34.3160    8.8010    9.8920 C.2      54   G    0.4770
   1723 O6         34.0500    9.3300   10.9780 O.2      54   G   -0.5597
   1724 N1         34.7670    7.4780    9.8500 N.am     54   G   -0.4787
   1725 C2         35.0800    6.7870    8.7000 C.2      54   G    0.7657
   1726 N2         35.4420    5.5100    8.8420 N.pl3    54   G   -0.9672
   1727 N3         35.0240    7.3150    7.4840 N.2      54   G   -0.6323
   1728 C4         34.5960    8.5950    7.5060 C.ar     54   G    0.1222
   1729 H5'        32.3594   11.4285    2.3102 H        54   G    0.0679
   1730 H5''       33.9379   12.1903    2.6142 H        54   G    0.0679
   1731 H4'        34.2464    9.7905    2.2715 H        54   G    0.1174
   1732 H3'        32.1694    9.5498    4.4948 H        54   G    0.0615
   1733 H2'        33.2721    7.5233    5.1503 H        54   G    0.0972
   1734 H1'        35.7935    8.5855    5.0097 H        54   G    0.2006
   1735 H8         33.7421   11.4457    6.2337 H        54   G    0.1640
   1736 H1         34.8712    6.9922   10.7294 H        54   G    0.3424
   1737 H21        35.4823    5.0959    9.7623 H        54   G    0.4364
   1738 H22        35.6756    4.9579    8.0291 H        54   G    0.4364
   1739 HO2'       34.0598    6.3726    3.5368 H        54   G    0.4186
   1740 P          30.6300    7.9320    2.9660 P.3      55   U    1.1662
   1741 OP1        30.1020    7.5500    1.6210 O.co2    55   U   -0.7760
   1742 OP2        29.8380    8.8430    3.8270 O.co2    55   U   -0.7760
   1743 O5'        30.8250    6.5990    3.8190 O.3      55   U   -0.4989
   1744 C5'        31.6760    5.5350    3.3710 C.3      55   U    0.0558
   1745 C4'        31.9290    4.5590    4.5020 C.3      55   U    0.1065
   1746 O4'        32.7490    5.2100    5.5090 O.3      55   U   -0.3548
   1747 C3'        30.6950    4.1100    5.2710 C.3      55   U    0.2022
   1748 O3'        30.0690    3.0070    4.6180 O.3      55   U   -0.5246
   1749 C2'        31.3090    3.6950    6.6030 C.3      55   U    0.0670
   1750 O2'        32.0190    2.4770    6.5420 O.3      55   U   -0.6139
   1751 C1'        32.3390    4.7990    6.8020 C.3      55   U    0.0674
   1752 N1         31.8290    5.9690    7.5320 N.am     55   U    0.0418
   1753 C2         31.8820    5.9030    8.8980 C.2      55   U    0.4687
   1754 O2         32.2190    4.8890    9.4740 O.2      55   U   -0.5477
   1755 N3         31.5030    7.0490    9.5610 N.am     55   U   -0.3549
   1756 C4         31.0400    8.2250    8.9960 C.2      55   U    0.5952
   1757 O4         30.8400    9.2150    9.7160 O.2      55   U   -0.5761
   1758 C5         30.9460    8.1960    7.5590 C.2      55   U   -0.3635
   1759 C6         31.3380    7.0940    6.8940 C.2      55   U   -0.1126
   1760 H5'        31.1945    5.0121    2.5447 H        55   U    0.0679
   1761 H5''       32.6254    5.9497    3.0322 H        55   U    0.0679
   1762 H4'        32.4539    3.6850    4.1163 H        55   U    0.1174
   1763 H3'        29.9949    4.9349    5.4032 H        55   U    0.0615
   1764 H2'        30.5678    3.6883    7.4022 H        55   U    0.0972
   1765 H1'        33.1981    4.3927    7.3358 H        55   U    0.1824
   1766 H3         31.5701    7.0294   10.5686 H        55   U    0.3154
   1767 H5         30.5644    9.0508    7.0204 H        55   U    0.1811
   1768 H6         31.2663    7.0874    5.8164 H        55   U    0.2188
   1769 HO2'       31.7267    1.8998    7.2512 H        55   U    0.4186
   1770 P          28.4840    2.7800    4.7630 P.3      56   C    1.1662
   1771 OP1        28.0970    1.8310    3.6700 O.co2    56   C   -0.7760
   1772 OP2        27.7610    4.0770    4.9070 O.co2    56   C   -0.7760
   1773 O5'        28.3200    2.0390    6.1580 O.3      56   C   -0.4989
   1774 C5'        28.8730    0.7340    6.3620 C.3      56   C    0.0558
   1775 C4'        28.9270    0.4190    7.8420 C.3      56   C    0.1065
   1776 O4'        29.7320    1.4130    8.5130 O.3      56   C   -0.3548
   1777 C3'        27.6050    0.4930    8.5940 C.3      56   C    0.2022
   1778 O3'        26.8820   -0.7190    8.4510 O.3      56   C   -0.5246
   1779 C2'        28.0840    0.6390   10.0310 C.3      56   C    0.0670
   1780 O2'        28.5830   -0.5940   10.5360 O.3      56   C   -0.6139
   1781 C1'        29.2540    1.6050    9.8420 C.3      56   C    0.0066
   1782 N1         28.9000    3.0320   10.0120 N.am     56   C   -0.0484
   1783 C2         28.8430    3.5590   11.3000 C.2      56   C    0.7538
   1784 O2         28.9600    2.7860   12.2720 O.2      56   C   -0.6252
   1785 N3         28.6450    4.8930   11.4610 N.2      56   C   -0.7584
   1786 C4         28.4690    5.6730   10.3930 C.2      56   C    0.8185
   1787 N4         28.3080    6.9850   10.5930 N.pl3    56   C   -0.9530
   1788 C5         28.4550    5.1460    9.0760 C.2      56   C   -0.5215
   1789 C6         28.6670    3.8360    8.9310 C.2      56   C    0.0053
   1790 H5'        29.8813    0.7010    5.9492 H        56   C    0.0679
   1791 H5''       28.2511   -0.0053    5.8573 H        56   C    0.0679
   1792 H4'        29.3717   -0.5655    7.9869 H        56   C    0.1174
   1793 H3'        27.0127    1.3524    8.2797 H        56   C    0.0615
   1794 H2'        27.3115    1.0585   10.6755 H        56   C    0.0972
   1795 H1'        30.0455    1.3480   10.5459 H        56   C    0.2029
   1796 H5         28.2791    5.7820    8.2210 H        56   C    0.1928
   1797 H6         28.6542    3.4033    7.9415 H        56   C    0.1958
   1798 H41        28.3201    7.3580   11.5315 H        56   C    0.4234
   1799 H42        28.1743    7.6032    9.8056 H        56   C    0.4234
   1800 HO2'       28.0835   -0.8465   11.3160 H        56   C    0.4186
   1801 P          25.3120   -0.6730    8.1450 P.3      57   C    1.1662
   1802 OP1        24.9580   -2.0180    7.6190 O.co2    57   C   -0.7760
   1803 OP2        24.9280    0.5390    7.3660 O.co2    57   C   -0.7760
   1804 O5'        24.6410   -0.5150    9.5690 O.3      57   C   -0.4989
   1805 C5'        24.6900   -1.5860   10.5030 C.3      57   C    0.0558
   1806 C4'        24.6250   -1.0500   11.9070 C.3      57   C    0.1065
   1807 O4'        25.6980   -0.0940   12.1190 O.3      57   C   -0.3548
   1808 C3'        23.3880   -0.2340   12.2550 C.3      57   C    0.2022
   1809 O3'        22.3010   -1.0840   12.5810 O.3      57   C   -0.5246
   1810 C2'        23.8690    0.4740   13.5060 C.3      57   C    0.0670
   1811 O2'        23.9500   -0.4330   14.5930 O.3      57   C   -0.6139
   1812 C1'        25.2750    0.8760   13.0740 C.3      57   C    0.0066
   1813 N1         25.2550    2.2020   12.4320 N.am     57   C   -0.0484
   1814 C2         25.2860    3.3240   13.2500 C.2      57   C    0.7538
   1815 O2         25.2720    3.1660   14.4860 O.2      57   C   -0.6252
   1816 N3         25.3010    4.5480   12.6950 N.2      57   C   -0.7584
   1817 C4         25.2550    4.6790   11.3660 C.2      57   C    0.8185
   1818 N4         25.2570    5.9070   10.8690 N.pl3    57   C   -0.9530
   1819 C5         25.1960    3.5410   10.4950 C.2      57   C   -0.5215
   1820 C6         25.2010    2.3320   11.0710 C.2      57   C    0.0053
   1821 H5'        23.8446   -2.2524   10.3320 H        57   C    0.0679
   1822 H5''       25.6195   -2.1396   10.3699 H        57   C    0.0679
   1823 H4'        24.7274   -1.8729   12.6144 H        57   C    0.1174
   1824 H3'        23.1300    0.4699   11.4638 H        57   C    0.0615
   1825 H2'        23.2533    1.3412   13.7448 H        57   C    0.0972
   1826 H1'        25.9476    0.8809   13.9318 H        57   C    0.2029
   1827 H5         25.1496    3.6541    9.4219 H        57   C    0.1928
   1828 H6         25.1619    1.4474   10.4527 H        57   C    0.1958
   1829 H41        25.2956    6.7029   11.4896 H        57   C    0.4234
   1830 H42        25.2199    6.0473    9.8695 H        57   C    0.4234
   1831 HO2'       23.7021    0.0169   15.4040 H        57   C    0.4186
   1832 P          20.8000   -0.5360   12.4960 P.3      58   G    1.1662
   1833 OP1        19.8900   -1.6400   12.8930 O.co2    58   G   -0.7760
   1834 OP2        20.6000    0.1530   11.1770 O.co2    58   G   -0.7760
   1835 O5'        20.7410    0.6110   13.5920 O.3      58   G   -0.4989
   1836 C5'        20.7800    0.2830   14.9700 C.3      58   G    0.0558
   1837 C4'        20.7320    1.5430   15.7860 C.3      58   G    0.1065
   1838 O4'        21.8990    2.3500   15.4990 O.3      58   G   -0.3548
   1839 C3'        19.5700    2.4610   15.4600 C.3      58   G    0.2022
   1840 O3'        18.4300    1.9880   16.1670 O.3      58   G   -0.5246
   1841 C2'        20.0740    3.7960   15.9910 C.3      58   G    0.0670
   1842 O2'        19.9120    3.9210   17.3930 O.3      58   G   -0.6139
   1843 C1'        21.5590    3.7260   15.6190 C.3      58   G    0.0191
   1844 N9         21.8140    4.3980   14.3480 N.ar     58   G    0.0492
   1845 C8         21.9160    3.8450   13.0970 C.ar     58   G    0.1374
   1846 N7         22.0960    4.7350   12.1580 N.ar     58   G   -0.5709
   1847 C5         22.1200    5.9470   12.8380 C.ar     58   G    0.1744
   1848 C6         22.2440    7.2870   12.3610 C.2      58   G    0.4770
   1849 O6         22.3540    7.6890   11.2040 O.2      58   G   -0.5597
   1850 N1         22.1970    8.2070   13.4040 N.am     58   G   -0.4787
   1851 C2         22.0270    7.8870   14.7250 C.2      58   G    0.7657
   1852 N2         21.9520    8.9130   15.5870 N.pl3    58   G   -0.9672
   1853 N3         21.9170    6.6540   15.1770 N.2      58   G   -0.6323
   1854 C4         21.9630    5.7470   14.1880 C.ar     58   G    0.1222
   1855 H5'        21.7014   -0.2567   15.1890 H        58   G    0.0679
   1856 H5''       19.9237   -0.3439   15.2187 H        58   G    0.0679
   1857 H4'        20.7131    1.2915   16.8464 H        58   G    0.1174
   1858 H3'        19.3843    2.5033   14.3868 H        58   G    0.0615
   1859 H2'        19.5876    4.6229   15.4735 H        58   G    0.0972
   1860 H1'        22.1576    4.1860   16.4053 H        58   G    0.2006
   1861 H8         21.8539    2.7835   12.9079 H        58   G    0.1640
   1862 H1         22.2957    9.1844   13.1693 H        58   G    0.3424
   1863 H21        22.0279    9.8622   15.2502 H        58   G    0.4364
   1864 H22        21.8197    8.7359   16.5725 H        58   G    0.4364
   1865 HO2'       18.9780    3.8855   17.6121 H        58   G    0.4186
   1866 P          16.9560    2.3480   15.6540 P.3      59   A    1.1662
   1867 OP1        15.9990    1.4480   16.3550 O.co2    59   A   -0.7760
   1868 OP2        16.9010    2.4520   14.1730 O.co2    59   A   -0.7760
   1869 O5'        16.7550    3.8130   16.2240 O.3      59   A   -0.4989
   1870 C5'        15.5230    4.4780   16.0680 C.3      59   A    0.0558
   1871 C4'        15.6500    5.8900   16.5560 C.3      59   A    0.1065
   1872 O4'        16.5900    6.6120   15.7180 O.3      59   A   -0.3548
   1873 C3'        14.3660    6.6760   16.4560 C.3      59   A    0.2022
   1874 O3'        13.6160    6.4440   17.6250 O.3      59   A   -0.5246
   1875 C2'        14.8810    8.1000   16.3610 C.3      59   A    0.0670
   1876 O2'        15.3480    8.5900   17.5960 O.3      59   A   -0.6139
   1877 C1'        16.0920    7.9060   15.4550 C.3      59   A    0.0394
   1878 N9         15.8140    7.9980   14.0230 N.ar     59   A   -0.0251
   1879 C8         15.6920    6.9950   13.0990 C.ar     59   A    0.2006
   1880 N7         15.5240    7.4310   11.8700 N.ar     59   A   -0.6073
   1881 C5         15.5190    8.8120   12.0060 C.ar     59   A    0.0515
   1882 C6         15.3910    9.8580   11.0750 C.ar     59   A    0.7009
   1883 N6         15.2540    9.6680    9.7640 N.pl3    59   A   -0.9019
   1884 N1         15.4190   11.1220   11.5440 N.ar     59   A   -0.7615
   1885 C2         15.5630   11.3120   12.8530 C.ar     59   A    0.5875
   1886 N3         15.6960   10.4130   13.8230 N.ar     59   A   -0.6997
   1887 C4         15.6710    9.1720   13.3260 C.ar     59   A    0.3053
   1888 H5'        15.2436    4.4819   15.0144 H        59   A    0.0679
   1889 H5''       14.7560    3.9618   16.6453 H        59   A    0.0679
   1890 H4'        16.0018    5.8915   17.5877 H        59   A    0.1174
   1891 H3'        13.8028    6.3999   15.5646 H        59   A    0.0615
   1892 H2'        14.1443    8.7673   15.9138 H        59   A    0.0972
   1893 H1'        16.8537    8.6403   15.7173 H        59   A    0.2007
   1894 H8         15.7301    5.9465   13.3551 H        59   A    0.1553
   1895 H2         15.5733   12.3435   13.1729 H        59   A    0.0473
   1896 H61        15.2341    8.7304    9.3890 H        59   A    0.4115
   1897 H62        15.1700   10.4615    9.1448 H        59   A    0.4115
   1898 HO2'       15.8003    9.4255   17.4581 H        59   A    0.4186
   1899 P          12.0160    6.4950   17.5510 P.3      60   C    1.1662
   1900 OP1        11.5010    6.2000   18.9170 O.co2    60   C   -0.7760
   1901 OP2        11.5840    5.6590   16.4060 O.co2    60   C   -0.7760
   1902 O5'        11.6980    8.0070   17.1780 O.3      60   C   -0.4989
   1903 C5'        12.0680    9.0740   18.0350 C.3      60   C    0.0558
   1904 C4'        11.9510   10.3840   17.2970 C.3      60   C    0.1065
   1905 O4'        12.8830   10.3750   16.1810 O.3      60   C   -0.3548
   1906 C3'        10.6140   10.6520   16.6190 C.3      60   C    0.2022
   1907 O3'         9.6520   11.1620   17.5370 O.3      60   C   -0.5246
   1908 C2'        11.0120   11.7080   15.6000 C.3      60   C    0.0670
   1909 O2'        11.2360   12.9750   16.1770 O.3      60   C   -0.6139
   1910 C1'        12.3540   11.1530   15.1130 C.3      60   C    0.0066
   1911 N1         12.2440   10.2980   13.9180 N.am     60   C   -0.0484
   1912 C2         12.1880   10.9110   12.6690 C.2      60   C    0.7538
   1913 O2         12.1490   12.1430   12.6090 O.2      60   C   -0.6252
   1914 N3         12.1770   10.1490   11.5540 N.2      60   C   -0.7584
   1915 C4         12.2100    8.8230   11.6520 C.2      60   C    0.8185
   1916 N4         12.2780    8.1160   10.5150 N.pl3    60   C   -0.9530
   1917 C5         12.1990    8.1600   12.9200 C.2      60   C   -0.5215
   1918 C6         12.2200    8.9320   14.0180 C.2      60   C    0.0053
   1919 H5'        11.4082    9.0870   18.9025 H        60   C    0.0679
   1920 H5''       13.0975    8.9341   18.3645 H        60   C    0.0679
   1921 H4'        12.1925   11.2068   17.9699 H        60   C    0.1174
   1922 H3'        10.2420    9.7548   16.1243 H        60   C    0.0615
   1923 H2'        10.2888   11.7657   14.7865 H        60   C    0.0972
   1924 H1'        13.0305   11.9812   14.9018 H        60   C    0.2029
   1925 H5         12.1748    7.0826   12.9908 H        60   C    0.1928
   1926 H6         12.2179    8.4696   14.9940 H        60   C    0.1958
   1927 H41        12.2938    8.5921    9.6244 H        60   C    0.4234
   1928 H42        12.3134    7.1072   10.5490 H        60   C    0.4234
   1929 HO2'       10.4031   13.3373   16.4879 H        60   C    0.4186
   1930 P           8.0860   10.8390   17.3240 P.3      61   U    1.1662
   1931 OP1         7.3840   11.4020   18.5110 O.co2    61   U   -0.7760
   1932 OP2         7.9590    9.4000   17.0090 O.co2    61   U   -0.7760
   1933 O5'         7.6750   11.6800   16.0300 O.3      61   U   -0.4989
   1934 C5'         7.7290   13.1050   16.0360 C.3      61   U    0.0558
   1935 C4'         7.5260   13.6470   14.6380 C.3      61   U    0.1065
   1936 O4'         8.6460   13.2860   13.7800 O.3      61   U   -0.3548
   1937 C3'         6.3310   13.0920   13.8870 C.3      61   U    0.2022
   1938 O3'         5.1410   13.7200   14.3420 O.3      61   U   -0.5246
   1939 C2'         6.6980   13.4690   12.4590 C.3      61   U    0.0670
   1940 O2'         6.6010   14.8630   12.2350 O.3      61   U   -0.6139
   1941 C1'         8.1810   13.0930   12.4470 C.3      61   U    0.0674
   1942 N1          8.4170   11.6910   12.0690 N.am     61   U    0.0418
   1943 C2          8.5230   11.3940   10.7260 C.2      61   U    0.4687
   1944 O2          8.3940   12.2300    9.8570 O.2      61   U   -0.5477
   1945 N3          8.7820   10.0770   10.4380 N.am     61   U   -0.3549
   1946 C4          8.9330    9.0500   11.3380 C.2      61   U    0.5952
   1947 O4          9.1270    7.9140   10.9220 O.2      61   U   -0.5761
   1948 C5          8.7940    9.4320   12.7100 C.2      61   U   -0.3635
   1949 C6          8.5420   10.7090   13.0200 C.2      61   U   -0.1126
   1950 H5'         8.7023   13.4257   16.4075 H        61   U    0.0679
   1951 H5''        6.9479   13.4927   16.6899 H        61   U    0.0679
   1952 H4'         7.4464   14.7331   14.6838 H        61   U    0.1174
   1953 H3'         6.2681   12.0097   14.0002 H        61   U    0.0615
   1954 H2'         6.1268   12.8979   11.7271 H        61   U    0.0972
   1955 H1'         8.7225   13.7530   11.7692 H        61   U    0.1824
   1956 H3          8.8710    9.8376    9.4608 H        61   U    0.3154
   1957 H5          8.8920    8.6931   13.4916 H        61   U    0.1811
   1958 H6          8.4325   10.9779   14.0602 H        61   U    0.2188
   1959 HO2'        6.5964   15.0363   11.2908 H        61   U    0.4186
   1960 P           3.7480   12.9300   14.2730 P.3      62   A    1.1662
   1961 OP1         2.7370   13.7340   14.9990 O.co2    62   A   -0.7760
   1962 OP2         3.9560   11.5070   14.6420 O.co2    62   A   -0.7760
   1963 O5'         3.3750   12.9390   12.7260 O.3      62   A   -0.4989
   1964 C5'         3.1240   14.1640   12.0490 C.3      62   A    0.0558
   1965 C4'         2.8730   13.9070   10.5920 C.3      62   A    0.1065
   1966 O4'         4.1080   13.4890    9.9480 O.3      62   A   -0.3548
   1967 C3'         1.9110   12.7720   10.2930 C.3      62   A    0.2022
   1968 O3'         0.5590   13.2080   10.4570 O.3      62   A   -0.5246
   1969 C2'         2.2780   12.4630    8.8490 C.3      62   A    0.0670
   1970 O2'         1.8070   13.4560    7.9540 O.3      62   A   -0.6139
   1971 C1'         3.8070   12.5620    8.9150 C.3      62   A    0.0394
   1972 N9          4.4610   11.2960    9.2410 N.ar     62   A   -0.0251
   1973 C8          4.7910   10.8110   10.4840 C.ar     62   A    0.2006
   1974 N7          5.3700    9.6370   10.4550 N.ar     62   A   -0.6073
   1975 C5          5.4360    9.3320    9.1000 C.ar     62   A    0.0515
   1976 C6          5.9630    8.2290    8.4020 C.ar     62   A    0.7009
   1977 N6          6.5590    7.1900    8.9950 N.pl3    62   A   -0.9019
   1978 N1          5.8640    8.2330    7.0560 N.ar     62   A   -0.7615
   1979 C2          5.2880    9.2880    6.4600 C.ar     62   A    0.5875
   1980 N3          4.7690   10.3860    7.0050 N.ar     62   A   -0.6997
   1981 C4          4.8750   10.3430    8.3440 C.ar     62   A    0.3053
   1982 H5'         2.2486   14.6443   12.4861 H        62   A    0.0679
   1983 H5''        3.9878   14.8200   12.1567 H        62   A    0.0679
   1984 H4'         2.5112   14.8209   10.1209 H        62   A    0.1174
   1985 H3'         2.1181   11.9147   10.9335 H        62   A    0.0615
   1986 H2'         1.9506   11.4660    8.5540 H        62   A    0.0972
   1987 H1'         4.1897   12.9366    7.9656 H        62   A    0.2007
   1988 H8          4.5913   11.3482   11.3994 H        62   A    0.1553
   1989 H2          5.2382    9.2394    5.3822 H        62   A    0.0473
   1990 HO2'        2.4543   13.5936    7.2585 H        62   A    0.4186
   1991 H61         7.0913    6.5838    8.3873 H        62   A    0.4115
   1992 H62         6.4820    7.0217    9.9879 H        62   A    0.4115
   1993 P          -0.5460   12.1870   11.0430 P.3      63   U    1.1662
   1994 OP1        -1.7820   12.9620   11.2830 O.co2    63   U   -0.7760
   1995 OP2         0.0170   11.3690   12.1370 O.co2    63   U   -0.7760
   1996 O5'        -0.8100   11.1990    9.8280 O.3      63   U   -0.4989
   1997 C5'        -1.4080   11.6810    8.6280 C.3      63   U    0.0558
   1998 C4'        -1.2760   10.6570    7.5400 C.3      63   U    0.1065
   1999 O4'         0.1320   10.4240    7.2610 O.3      63   U   -0.3548
   2000 C3'        -1.7800    9.2680    7.8860 C.3      63   U    0.2022
   2001 O3'        -3.1940    9.1990    7.7640 O.3      63   U   -0.5246
   2002 C2'        -1.0840    8.4460    6.8180 C.3      63   U    0.0670
   2003 O2'        -1.6780    8.6580    5.5550 O.3      63   U   -0.6139
   2004 C1'         0.3080    9.0840    6.8300 C.3      63   U    0.0674
   2005 N1          1.2420    8.4190    7.7510 N.am     63   U    0.0418
   2006 C2          1.9260    7.3240    7.2750 C.2      63   U    0.4687
   2007 O2          1.7810    6.8970    6.1410 O.2      63   U   -0.5477
   2008 N3          2.7850    6.7420    8.1710 N.am     63   U   -0.3549
   2009 C4          3.0110    7.1330    9.4680 C.2      63   U    0.5952
   2010 O4          3.8100    6.5020   10.1530 O.2      63   U   -0.5761
   2011 C5          2.2600    8.2760    9.8890 C.2      63   U   -0.3635
   2012 C6          1.4260    8.8680    9.0350 C.2      63   U   -0.1126
   2013 H5'        -2.4641   11.8826    8.8072 H        63   U    0.0679
   2014 H5''       -0.9112   12.6013    8.3207 H        63   U    0.0679
   2015 H4'        -1.7742   11.0137    6.6385 H        63   U    0.1174
   2016 H3'        -1.4569    8.9702    8.8835 H        63   U    0.0615
   2017 H2'        -1.0485    7.3881    7.0781 H        63   U    0.0972
   2018 H1'         0.7219    9.0762    5.8217 H        63   U    0.1824
   2019 H3          3.3064    5.9417    7.8428 H        63   U    0.3154
   2020 H5          2.3686    8.6568   10.8938 H        63   U    0.1811
   2021 H6          0.8733    9.7348    9.3659 H        63   U    0.2188
   2022 HO2'       -1.7345    7.8238    5.0834 H        63   U    0.4186
   2023 P          -4.0060    8.0640    8.5610 P.3      64   G    1.1662
   2024 OP1        -5.4460    8.3700    8.3640 O.co2    64   G   -0.7760
   2025 OP2        -3.4610    7.9670    9.9380 O.co2    64   G   -0.7760
   2026 O5'        -3.6480    6.7210    7.7840 O.3      64   G   -0.4989
   2027 C5'        -4.1230    6.4980    6.4640 C.3      64   G    0.0558
   2028 C4'        -3.4850    5.2630    5.8850 C.3      64   G    0.1065
   2029 O4'        -2.0420    5.4100    5.9150 O.3      64   G   -0.3548
   2030 C3'        -3.7150    3.9750    6.6540 C.3      64   G    0.2022
   2031 O3'        -4.9920    3.4180    6.3550 O.3      64   G   -0.5246
   2032 C2'        -2.5810    3.1090    6.1270 C.3      64   G    0.0670
   2033 O2'        -2.8400    2.5840    4.8430 O.3      64   G   -0.6139
   2034 C1'        -1.4450    4.1310    6.0390 C.3      64   G    0.0191
   2035 N9         -0.6170    4.1260    7.2370 N.ar     64   G    0.0492
   2036 C8         -0.6310    5.0370    8.2660 C.ar     64   G    0.1374
   2037 N7          0.2220    4.7500    9.2110 N.ar     64   G   -0.5709
   2038 C5          0.8380    3.5830    8.7770 C.ar     64   G    0.1744
   2039 C6          1.8580    2.7930    9.3840 C.2      64   G    0.4770
   2040 O6          2.4400    2.9800   10.4620 O.2      64   G   -0.5597
   2041 N1          2.1840    1.6910    8.6020 N.am     64   G   -0.4787
   2042 C2          1.6100    1.3830    7.3960 C.2      64   G    0.7657
   2043 N2          2.0530    0.2730    6.8030 N.pl3    64   G   -0.9672
   2044 N3          0.6650    2.1120    6.8170 N.2      64   G   -0.6323
   2045 C4          0.3310    3.1870    7.5590 C.ar     64   G    0.1222
   2046 H5'        -3.8741    7.3575    5.8416 H        64   G    0.0679
   2047 H5''       -5.2051    6.3692    6.4863 H        64   G    0.0679
   2048 H4'        -3.8149    5.1337    4.8542 H        64   G    0.1174
   2049 H3'        -3.6077    4.1411    7.7259 H        64   G    0.0615
   2050 H2'        -2.3371    2.3141    6.8317 H        64   G    0.0972
   2051 H1'        -0.8293    3.9244    5.1636 H        64   G    0.2006
   2052 H8         -1.2799    5.9000    8.2900 H        64   G    0.1640
   2053 H1          2.8996    1.0687    8.9495 H        64   G    0.3424
   2054 H21         2.7714   -0.2831    7.2444 H        64   G    0.4364
   2055 H22         1.6700   -0.0112    5.9127 H        64   G    0.4364
   2056 HO2'       -2.6364    1.6459    4.8341 H        64   G    0.4186
   2057 P          -5.6990    2.4360    7.4160 P.3      65   U    1.1662
   2058 OP1        -7.0860    2.1820    6.9500 O.co2    65   U   -0.7760
   2059 OP2        -5.4770    2.9830    8.7800 O.co2    65   U   -0.7760
   2060 O5'        -4.8670    1.0850    7.3000 O.3      65   U   -0.4989
   2061 C5'        -4.8510    0.3430    6.0850 C.3      65   U    0.0558
   2062 C4'        -3.9920   -0.8900    6.2370 C.3      65   U    0.1065
   2063 O4'        -2.6040   -0.4950    6.3940 O.3      65   U   -0.3548
   2064 C3'        -4.2690   -1.7450    7.4630 C.3      65   U    0.2022
   2065 O3'        -5.3450   -2.6390    7.2110 O.3      65   U   -0.5246
   2066 C2'        -2.9550   -2.4990    7.6180 C.3      65   U    0.0670
   2067 O2'        -2.8370   -3.6000    6.7360 O.3      65   U   -0.6139
   2068 C1'        -1.9410   -1.4170    7.2430 C.3      65   U    0.0674
   2069 N1         -1.4360   -0.6820    8.4100 N.am     65   U    0.0418
   2070 C2         -0.3410   -1.2010    9.0660 C.2      65   U    0.4687
   2071 O2          0.2070   -2.2320    8.7220 O.2      65   U   -0.5477
   2072 N3          0.0890   -0.4690   10.1440 N.am     65   U   -0.3549
   2073 C4         -0.4590    0.7040   10.6210 C.2      65   U    0.5952
   2074 O4          0.0650    1.2680   11.5790 O.2      65   U   -0.5761
   2075 C5         -1.5950    1.1720    9.8910 C.2      65   U   -0.3635
   2076 C6         -2.0330    0.4800    8.8340 C.2      65   U   -0.1126
   2077 H5'        -5.8683    0.0438    5.8327 H        65   U    0.0679
   2078 H5''       -4.4494    0.9666    5.2863 H        65   U    0.0679
   2079 H4'        -4.0893   -1.5056    5.3428 H        65   U    0.1174
   2080 H3'        -4.4707   -1.1248    8.3363 H        65   U    0.0615
   2081 H2'        -2.8137   -2.8170    8.6510 H        65   U    0.0972
   2082 H1'        -1.1061   -1.8696    6.7081 H        65   U    0.1824
   2083 H3          0.8920   -0.8269   10.6412 H        65   U    0.3154
   2084 H5         -2.0970    2.0798   10.1915 H        65   U    0.1811
   2085 H6         -2.8908    0.8497    8.2918 H        65   U    0.2188
   2086 HO2'       -2.8298   -4.4161    7.2414 H        65   U    0.4186
   2087 P          -6.2300   -3.1900    8.4360 P.3      66   C    1.1662
   2088 OP1        -7.3140   -4.0210    7.8570 O.co2    66   C   -0.7760
   2089 OP2        -6.5740   -2.0370    9.3070 O.co2    66   C   -0.7760
   2090 O5'        -5.2380   -4.1440    9.2420 O.3      66   C   -0.4989
   2091 C5'        -4.7690   -5.3620    8.6680 C.3      66   C    0.0558
   2092 C4'        -3.7180   -5.9940    9.5540 C.3      66   C    0.1065
   2093 O4'        -2.5770   -5.1060    9.6670 O.3      66   C   -0.3548
   2094 C3'        -4.1220   -6.2360   10.9980 C.3      66   C    0.2022
   2095 O3'        -4.8500   -7.4510   11.1240 O.3      66   C   -0.5246
   2096 C2'        -2.7700   -6.3400   11.6940 C.3      66   C    0.0670
   2097 O2'        -2.1940   -7.6250   11.5790 O.3      66   C   -0.6139
   2098 C1'        -1.9420   -5.3100   10.9200 C.3      66   C    0.0066
   2099 N1         -1.8550   -4.0150   11.6150 N.am     66   C   -0.0484
   2100 C2         -0.8070   -3.8030   12.5120 C.2      66   C    0.7538
   2101 O2          0.0250   -4.7050   12.6820 O.2      66   C   -0.6252
   2102 N3         -0.7250   -2.6230   13.1700 N.2      66   C   -0.7584
   2103 C4         -1.6400   -1.6750   12.9540 C.2      66   C    0.8185
   2104 N4         -1.5250   -0.5280   13.6280 N.pl3    66   C   -0.9530
   2105 C5         -2.7160   -1.8610   12.0380 C.2      66   C   -0.5215
   2106 C6         -2.7840   -3.0350   11.3960 C.2      66   C    0.0053
   2107 H5'        -4.3357   -5.1541    7.6897 H        66   C    0.0679
   2108 H5''       -5.6052   -6.0516    8.5526 H        66   C    0.0679
   2109 H4'        -3.3955   -6.9359    9.1102 H        66   C    0.1174
   2110 H3'        -4.6967   -5.3957   11.3875 H        66   C    0.0615
   2111 H2'        -2.8561   -6.0520   12.7417 H        66   C    0.0972
   2112 H1'        -0.9378   -5.7015   10.7573 H        66   C    0.2029
   2113 H5         -3.4482   -1.0855   11.8680 H        66   C    0.1928
   2114 H6         -3.5856   -3.2106   10.6939 H        66   C    0.1958
   2115 H41        -0.7623   -0.3981   14.2772 H        66   C    0.4234
   2116 H42        -2.2007    0.2096   13.4886 H        66   C    0.4234
   2117 HO2'       -2.7236   -8.2585   12.0687 H        66   C    0.4186
   2118 P          -6.1020   -7.5240   12.1280 P.3      67   C    1.1662
   2119 OP1        -6.7530   -8.8460   11.9540 O.co2    67   C   -0.7760
   2120 OP2        -6.9040   -6.2850   11.9430 O.co2    67   C   -0.7760
   2121 O5'        -5.4320   -7.4760   13.5750 O.3      67   C   -0.4989
   2122 C5'        -4.7120   -8.5960   14.0830 C.3      67   C    0.0558
   2123 C4'        -4.3410   -8.3740   15.5320 C.3      67   C    0.1065
   2124 O4'        -3.1360   -7.5750   15.6190 O.3      67   C   -0.3548
   2125 C3'        -5.3250   -7.5750   16.3680 C.3      67   C    0.2022
   2126 O3'        -6.5050   -8.3010   16.7290 O.3      67   C   -0.6541
   2127 C2'        -4.4620   -7.1570   17.5550 C.3      67   C    0.0670
   2128 O2'        -4.3490   -8.1740   18.5320 O.3      67   C   -0.6139
   2129 C1'        -3.0980   -6.9350   16.8860 C.3      67   C    0.0066
   2130 N1         -2.7460   -5.5170   16.6860 N.am     67   C   -0.0484
   2131 C2         -1.4220   -5.1110   16.9030 C.2      67   C    0.7538
   2132 O2         -0.5810   -5.9590   17.2420 O.2      67   C   -0.6252
   2133 N3         -1.0950   -3.8080   16.7380 N.2      67   C   -0.7584
   2134 C4         -2.0290   -2.9270   16.3700 C.2      67   C    0.8185
   2135 N4         -1.6660   -1.6510   16.2240 N.pl3    67   C   -0.9530
   2136 C5         -3.3790   -3.3160   16.1360 C.2      67   C   -0.5215
   2137 C6         -3.6900   -4.6060   16.3020 C.2      67   C    0.0053
   2138 H5'        -3.8032   -8.7337   13.4972 H        67   C    0.0679
   2139 H5''       -5.3315   -9.4892   14.0024 H        67   C    0.0679
   2140 H4'        -4.1664   -9.3385   16.0088 H        67   C    0.1174
   2141 H3'        -5.6161   -6.6833   15.8128 H        67   C    0.0615
   2142 H2'        -4.8324   -6.2325   17.9979 H        67   C    0.0972
   2143 H1'        -2.3267   -7.4063   17.4951 H        67   C    0.2029
   2144 H5         -4.1248   -2.5950   15.8353 H        67   C    0.1928
   2145 H6         -4.7046   -4.9337   16.1297 H        67   C    0.1958
   2146 H41        -0.7085   -1.3761   16.3905 H        67   C    0.4234
   2147 H42        -2.3488   -0.9602   15.9470 H        67   C    0.4234
   2148 HO3'       -7.0794   -7.7385   17.2536 H        67   C    0.4376
   2149 HO2'       -5.2019   -8.3128   18.9503 H        67   C    0.4186
@<TRIPOS>BOND
     1    1    2 1
     2    2    3 1
     3    3    5 1
     4    3    4 1
     5    4    9 1
     6    5    7 1
     7    5    6 1
     8    7    9 1
     9    7    8 1
    10    9   10 1
    11   10   20 ar
    12   10   11 ar
    13   11   12 ar
    14   12   13 ar
    15   13   20 ar
    16   13   14 1
    17   14   15 2
    18   14   16 am
    19   16   17 1
    20   17   18 2
    21   17   19 2
    22   19   20 1
    23   33   35 1
    24   33   36 1
    25   33   34 1
    26   36   37 1
    27   37   38 1
    28   38   39 1
    29   38   40 1
    30   39   44 1
    31   40   41 1
    32   40   42 1
    33   42   43 1
    34   42   44 1
    35   44   45 1
    36   45   55 ar
    37   45   46 ar
    38   46   47 ar
    39   47   48 ar
    40   48   55 ar
    41   48   49 1
    42   49   51 am
    43   49   50 2
    44   51   52 1
    45   52   53 2
    46   52   54 2
    47   54   55 1
    48   33    6 1
    49   67   70 1
    50   67   68 1
    51   67   69 1
    52   70   71 1
    53   71   72 1
    54   72   74 1
    55   72   73 1
    56   73   78 1
    57   74   75 1
    58   74   76 1
    59   76   77 1
    60   76   78 1
    61   78   79 1
    62   79   88 ar
    63   79   80 ar
    64   80   81 ar
    65   81   82 ar
    66   82   88 ar
    67   82   83 ar
    68   83   84 1
    69   83   85 ar
    70   85   86 ar
    71   86   87 ar
    72   87   88 ar
    73   41   67 1
    74  100  101 1
    75  100  102 1
    76  100  103 1
    77  103  104 1
    78  104  105 1
    79  105  107 1
    80  105  106 1
    81  106  111 1
    82  107  109 1
    83  107  108 1
    84  109  110 1
    85  109  111 1
    86  111  112 1
    87  112  113 am
    88  112  119 1
    89  113  115 1
    90  113  114 2
    91  115  116 2
    92  116  118 2
    93  116  117 2
    94  118  119 2
    95   75  100 1
    96  131  134 1
    97  131  132 1
    98  131  133 1
    99  134  135 1
   100  135  136 1
   101  136  138 1
   102  136  137 1
   103  137  142 1
   104  138  139 1
   105  138  140 1
   106  140  141 1
   107  140  142 1
   108  142  143 1
   109  143  152 ar
   110  143  144 ar
   111  144  145 ar
   112  145  146 ar
   113  146  152 ar
   114  146  147 ar
   115  147  148 1
   116  147  149 ar
   117  149  150 ar
   118  150  151 ar
   119  151  152 ar
   120  108  131 1
   121  164  165 1
   122  164  166 1
   123  164  167 1
   124  167  168 1
   125  168  169 1
   126  169  171 1
   127  169  170 1
   128  170  175 1
   129  171  173 1
   130  171  172 1
   131  173  174 1
   132  173  175 1
   133  175  176 1
   134  176  177 am
   135  176  183 1
   136  177  178 2
   137  177  179 am
   138  179  180 am
   139  180  182 1
   140  180  181 2
   141  182  183 2
   142  139  164 1
   143  194  197 1
   144  194  195 1
   145  194  196 1
   146  197  198 1
   147  198  199 1
   148  199  201 1
   149  199  200 1
   150  200  205 1
   151  201  202 1
   152  201  203 1
   153  203  204 1
   154  203  205 1
   155  205  206 1
   156  206  215 ar
   157  206  207 ar
   158  207  208 ar
   159  208  209 ar
   160  209  215 ar
   161  209  210 ar
   162  210  211 1
   163  210  212 ar
   164  212  213 ar
   165  213  214 ar
   166  214  215 ar
   167  172  194 1
   168  227  228 1
   169  227  229 1
   170  227  230 1
   171  230  231 1
   172  231  232 1
   173  232  234 1
   174  232  233 1
   175  233  238 1
   176  234  236 1
   177  234  235 1
   178  236  237 1
   179  236  238 1
   180  238  239 1
   181  239  240 am
   182  239  246 1
   183  240  241 2
   184  240  242 am
   185  242  243 am
   186  243  245 1
   187  243  244 2
   188  245  246 2
   189  202  227 1
   190  257  260 1
   191  257  258 1
   192  257  259 1
   193  260  261 1
   194  261  262 1
   195  262  264 1
   196  262  263 1
   197  263  268 1
   198  264  265 1
   199  264  266 1
   200  266  267 1
   201  266  268 1
   202  268  269 1
   203  269  278 ar
   204  269  270 ar
   205  270  271 ar
   206  271  272 ar
   207  272  278 ar
   208  272  273 ar
   209  273  274 1
   210  273  275 ar
   211  275  276 ar
   212  276  277 ar
   213  277  278 ar
   214  235  257 1
   215  290  293 1
   216  290  291 1
   217  290  292 1
   218  293  294 1
   219  294  295 1
   220  295  297 1
   221  295  296 1
   222  296  301 1
   223  297  298 1
   224  297  299 1
   225  299  300 1
   226  299  301 1
   227  301  302 1
   228  302  311 ar
   229  302  303 ar
   230  303  304 ar
   231  304  305 ar
   232  305  311 ar
   233  305  306 ar
   234  306  307 1
   235  306  308 ar
   236  308  309 ar
   237  309  310 ar
   238  310  311 ar
   239  265  290 1
   240  323  326 1
   241  323  324 1
   242  323  325 1
   243  326  327 1
   244  327  328 1
   245  328  330 1
   246  328  329 1
   247  329  334 1
   248  330  331 1
   249  330  332 1
   250  332  333 1
   251  332  334 1
   252  334  335 1
   253  335  344 ar
   254  335  336 ar
   255  336  337 ar
   256  337  338 ar
   257  338  344 ar
   258  338  339 ar
   259  339  340 1
   260  339  341 ar
   261  341  342 ar
   262  342  343 ar
   263  343  344 ar
   264  298  323 1
   265  356  357 1
   266  356  358 1
   267  356  359 1
   268  359  360 1
   269  360  361 1
   270  361  363 1
   271  361  362 1
   272  362  367 1
   273  363  365 1
   274  363  364 1
   275  365  366 1
   276  365  367 1
   277  367  368 1
   278  368  369 am
   279  368  375 1
   280  369  371 1
   281  369  370 2
   282  371  372 2
   283  372  374 2
   284  372  373 2
   285  374  375 2
   286  331  356 1
   287  387  389 1
   288  387  390 1
   289  387  388 1
   290  390  391 1
   291  391  392 1
   292  392  393 1
   293  392  394 1
   294  393  398 1
   295  394  395 1
   296  394  396 1
   297  396  397 1
   298  396  398 1
   299  398  399 1
   300  399  409 ar
   301  399  400 ar
   302  400  401 ar
   303  401  402 ar
   304  402  409 ar
   305  402  403 1
   306  403  405 am
   307  403  404 2
   308  405  406 1
   309  406  407 2
   310  406  408 2
   311  408  409 1
   312  364  387 1
   313  421  422 1
   314  421  423 1
   315  421  424 1
   316  424  425 1
   317  425  426 1
   318  426  428 1
   319  426  427 1
   320  427  432 1
   321  428  430 1
   322  428  429 1
   323  430  431 1
   324  430  432 1
   325  432  433 1
   326  433  434 am
   327  433  440 1
   328  434  436 1
   329  434  435 2
   330  436  437 2
   331  437  439 2
   332  437  438 2
   333  439  440 2
   334  395  421 1
   335  452  454 1
   336  452  455 1
   337  452  453 1
   338  455  456 1
   339  456  457 1
   340  457  458 1
   341  457  459 1
   342  458  463 1
   343  459  460 1
   344  459  461 1
   345  461  462 1
   346  461  463 1
   347  463  464 1
   348  464  474 ar
   349  464  465 ar
   350  465  466 ar
   351  466  467 ar
   352  467  474 ar
   353  467  468 1
   354  468  470 am
   355  468  469 2
   356  470  471 1
   357  471  472 2
   358  471  473 2
   359  473  474 1
   360  429  452 1
   361  486  487 1
   362  486  488 1
   363  486  489 1
   364  489  490 1
   365  490  491 1
   366  491  493 1
   367  491  492 1
   368  492  497 1
   369  493  495 1
   370  493  494 1
   371  495  496 1
   372  495  497 1
   373  497  498 1
   374  498  499 am
   375  498  505 1
   376  499  500 2
   377  499  501 am
   378  501  502 am
   379  502  504 1
   380  502  503 2
   381  504  505 2
   382  460  486 1
   383  516  518 1
   384  516  519 1
   385  516  517 1
   386  519  520 1
   387  520  521 1
   388  521  522 1
   389  521  523 1
   390  522  527 1
   391  523  524 1
   392  523  525 1
   393  525  526 1
   394  525  527 1
   395  527  528 1
   396  528  538 ar
   397  528  529 ar
   398  529  530 ar
   399  530  531 ar
   400  531  538 ar
   401  531  532 1
   402  532  534 am
   403  532  533 2
   404  534  535 1
   405  535  536 2
   406  535  537 2
   407  537  538 1
   408  494  516 1
   409  550  552 1
   410  550  553 1
   411  550  551 1
   412  553  554 1
   413  554  555 1
   414  555  556 1
   415  555  557 1
   416  556  561 1
   417  557  558 1
   418  557  559 1
   419  559  560 1
   420  559  561 1
   421  561  562 1
   422  562  572 ar
   423  562  563 ar
   424  563  564 ar
   425  564  565 ar
   426  565  572 ar
   427  565  566 1
   428  566  568 am
   429  566  567 2
   430  568  569 1
   431  569  570 2
   432  569  571 2
   433  571  572 1
   434  524  550 1
   435  584  587 1
   436  584  585 1
   437  584  586 1
   438  587  588 1
   439  588  589 1
   440  589  591 1
   441  589  590 1
   442  590  595 1
   443  591  592 1
   444  591  593 1
   445  593  594 1
   446  593  595 1
   447  595  596 1
   448  596  605 ar
   449  596  597 ar
   450  597  598 ar
   451  598  599 ar
   452  599  605 ar
   453  599  600 ar
   454  600  601 1
   455  600  602 ar
   456  602  603 ar
   457  603  604 ar
   458  604  605 ar
   459  558  584 1
   460  617  618 1
   461  617  619 1
   462  617  620 1
   463  620  621 1
   464  621  622 1
   465  622  624 1
   466  622  623 1
   467  623  628 1
   468  624  626 1
   469  624  625 1
   470  626  627 1
   471  626  628 1
   472  628  629 1
   473  629  630 am
   474  629  636 1
   475  630  631 2
   476  630  632 am
   477  632  633 am
   478  633  635 1
   479  633  634 2
   480  635  636 2
   481  592  617 1
   482  647  650 1
   483  647  648 1
   484  647  649 1
   485  650  651 1
   486  651  652 1
   487  652  654 1
   488  652  653 1
   489  653  658 1
   490  654  655 1
   491  654  656 1
   492  656  657 1
   493  656  658 1
   494  658  659 1
   495  659  668 ar
   496  659  660 ar
   497  660  661 ar
   498  661  662 ar
   499  662  668 ar
   500  662  663 ar
   501  663  664 1
   502  663  665 ar
   503  665  666 ar
   504  666  667 ar
   505  667  668 ar
   506  625  647 1
   507  680  681 1
   508  680  682 1
   509  680  683 1
   510  683  684 1
   511  684  685 1
   512  685  687 1
   513  685  686 1
   514  686  691 1
   515  687  689 1
   516  687  688 1
   517  689  690 1
   518  689  691 1
   519  691  692 1
   520  692  693 am
   521  692  699 1
   522  693  694 2
   523  693  695 am
   524  695  696 am
   525  696  698 1
   526  696  697 2
   527  698  699 2
   528  655  680 1
   529  710  712 1
   530  710  713 1
   531  710  711 1
   532  713  714 1
   533  714  715 1
   534  715  716 1
   535  715  717 1
   536  716  721 1
   537  717  718 1
   538  717  719 1
   539  719  720 1
   540  719  721 1
   541  721  722 1
   542  722  732 ar
   543  722  723 ar
   544  723  724 ar
   545  724  725 ar
   546  725  732 ar
   547  725  726 1
   548  726  728 am
   549  726  727 2
   550  728  729 1
   551  729  730 2
   552  729  731 2
   553  731  732 1
   554  688  710 1
   555  744  746 1
   556  744  747 1
   557  744  745 1
   558  747  748 1
   559  748  749 1
   560  749  750 1
   561  749  751 1
   562  750  755 1
   563  751  752 1
   564  751  753 1
   565  753  754 1
   566  753  755 1
   567  755  756 1
   568  756  766 ar
   569  756  757 ar
   570  757  758 ar
   571  758  759 ar
   572  759  766 ar
   573  759  760 1
   574  760  762 am
   575  760  761 2
   576  762  763 1
   577  763  764 2
   578  763  765 2
   579  765  766 1
   580  718  744 1
   581  778  779 1
   582  778  780 1
   583  778  781 1
   584  781  782 1
   585  782  783 1
   586  783  785 1
   587  783  784 1
   588  784  789 1
   589  785  787 1
   590  785  786 1
   591  787  788 1
   592  787  789 1
   593  789  790 1
   594  790  791 am
   595  790  797 1
   596  791  793 1
   597  791  792 2
   598  793  794 2
   599  794  796 2
   600  794  795 2
   601  796  797 2
   602  752  778 1
   603  809  812 1
   604  809  810 1
   605  809  811 1
   606  812  813 1
   607  813  814 1
   608  814  816 1
   609  814  815 1
   610  815  820 1
   611  816  817 1
   612  816  818 1
   613  818  819 1
   614  818  820 1
   615  820  821 1
   616  821  830 ar
   617  821  822 ar
   618  822  823 ar
   619  823  824 ar
   620  824  830 ar
   621  824  825 ar
   622  825  826 1
   623  825  827 ar
   624  827  828 ar
   625  828  829 ar
   626  829  830 ar
   627  786  809 1
   628  842  843 1
   629  842  844 1
   630  842  845 1
   631  845  846 1
   632  846  847 1
   633  847  849 1
   634  847  848 1
   635  848  853 1
   636  849  851 1
   637  849  850 1
   638  851  852 1
   639  851  853 1
   640  853  854 1
   641  854  855 am
   642  854  861 1
   643  855  857 1
   644  855  856 2
   645  857  858 2
   646  858  860 2
   647  858  859 2
   648  860  861 2
   649  817  842 1
   650  873  875 1
   651  873  876 1
   652  873  874 1
   653  876  877 1
   654  877  878 1
   655  878  879 1
   656  878  880 1
   657  879  884 1
   658  880  881 1
   659  880  882 1
   660  882  883 1
   661  882  884 1
   662  884  885 1
   663  885  895 ar
   664  885  886 ar
   665  886  887 ar
   666  887  888 ar
   667  888  895 ar
   668  888  889 1
   669  889  891 am
   670  889  890 2
   671  891  892 1
   672  892  893 2
   673  892  894 2
   674  894  895 1
   675  850  873 1
   676  907  908 1
   677  907  909 1
   678  907  910 1
   679  910  911 1
   680  911  912 1
   681  912  914 1
   682  912  913 1
   683  913  918 1
   684  914  916 1
   685  914  915 1
   686  916  917 1
   687  916  918 1
   688  918  919 1
   689  919  920 am
   690  919  926 1
   691  920  922 1
   692  920  921 2
   693  922  923 2
   694  923  925 2
   695  923  924 2
   696  925  926 2
   697  881  907 1
   698  938  940 1
   699  938  941 1
   700  938  939 1
   701  941  942 1
   702  942  943 1
   703  943  944 1
   704  943  945 1
   705  944  949 1
   706  945  946 1
   707  945  947 1
   708  947  948 1
   709  947  949 1
   710  949  950 1
   711  950  960 ar
   712  950  951 ar
   713  951  952 ar
   714  952  953 ar
   715  953  960 ar
   716  953  954 1
   717  954  956 am
   718  954  955 2
   719  956  957 1
   720  957  958 2
   721  957  959 2
   722  959  960 1
   723  915  938 1
   724  972  975 1
   725  972  973 1
   726  972  974 1
   727  975  976 1
   728  976  977 1
   729  977  979 1
   730  977  978 1
   731  978  983 1
   732  979  980 1
   733  979  981 1
   734  981  982 1
   735  981  983 1
   736  983  984 1
   737  984  993 ar
   738  984  985 ar
   739  985  986 ar
   740  986  987 ar
   741  987  993 ar
   742  987  988 ar
   743  988  989 1
   744  988  990 ar
   745  990  991 ar
   746  991  992 ar
   747  992  993 ar
   748  946  972 1
   749 1005 1007 1
   750 1005 1008 1
   751 1005 1006 1
   752 1008 1009 1
   753 1009 1010 1
   754 1010 1011 1
   755 1010 1012 1
   756 1011 1016 1
   757 1012 1013 1
   758 1012 1014 1
   759 1014 1015 1
   760 1014 1016 1
   761 1016 1017 1
   762 1017 1027 ar
   763 1017 1018 ar
   764 1018 1019 ar
   765 1019 1020 ar
   766 1020 1027 ar
   767 1020 1021 1
   768 1021 1023 am
   769 1021 1022 2
   770 1023 1024 1
   771 1024 1025 2
   772 1024 1026 2
   773 1026 1027 1
   774  980 1005 1
   775 1039 1040 1
   776 1039 1041 1
   777 1039 1042 1
   778 1042 1043 1
   779 1043 1044 1
   780 1044 1046 1
   781 1044 1045 1
   782 1045 1050 1
   783 1046 1048 1
   784 1046 1047 1
   785 1048 1049 1
   786 1048 1050 1
   787 1050 1051 1
   788 1051 1052 am
   789 1051 1058 1
   790 1052 1053 2
   791 1052 1054 am
   792 1054 1055 am
   793 1055 1057 1
   794 1055 1056 2
   795 1057 1058 2
   796 1013 1039 1
   797 1069 1070 1
   798 1069 1071 1
   799 1069 1072 1
   800 1072 1073 1
   801 1073 1074 1
   802 1074 1076 1
   803 1074 1075 1
   804 1075 1080 1
   805 1076 1078 1
   806 1076 1077 1
   807 1078 1079 1
   808 1078 1080 1
   809 1080 1081 1
   810 1081 1082 am
   811 1081 1088 1
   812 1082 1083 2
   813 1082 1084 am
   814 1084 1085 am
   815 1085 1087 1
   816 1085 1086 2
   817 1087 1088 2
   818 1047 1069 1
   819 1099 1100 1
   820 1099 1101 1
   821 1099 1102 1
   822 1102 1103 1
   823 1103 1104 1
   824 1104 1106 1
   825 1104 1105 1
   826 1105 1110 1
   827 1106 1108 1
   828 1106 1107 1
   829 1108 1109 1
   830 1108 1110 1
   831 1110 1111 1
   832 1111 1112 am
   833 1111 1118 1
   834 1112 1113 2
   835 1112 1114 am
   836 1114 1115 am
   837 1115 1117 1
   838 1115 1116 2
   839 1117 1118 2
   840 1077 1099 1
   841 1129 1130 1
   842 1129 1131 1
   843 1129 1132 1
   844 1132 1133 1
   845 1133 1134 1
   846 1134 1136 1
   847 1134 1135 1
   848 1135 1140 1
   849 1136 1138 1
   850 1136 1137 1
   851 1138 1139 1
   852 1138 1140 1
   853 1140 1141 1
   854 1141 1142 am
   855 1141 1148 1
   856 1142 1144 1
   857 1142 1143 2
   858 1144 1145 2
   859 1145 1147 2
   860 1145 1146 2
   861 1147 1148 2
   862 1107 1129 1
   863 1160 1161 1
   864 1160 1162 1
   865 1160 1163 1
   866 1163 1164 1
   867 1164 1165 1
   868 1165 1167 1
   869 1165 1166 1
   870 1166 1171 1
   871 1167 1169 1
   872 1167 1168 1
   873 1169 1170 1
   874 1169 1171 1
   875 1171 1172 1
   876 1172 1173 am
   877 1172 1179 1
   878 1173 1174 2
   879 1173 1175 am
   880 1175 1176 am
   881 1176 1178 1
   882 1176 1177 2
   883 1178 1179 2
   884 1137 1160 1
   885 1190 1193 1
   886 1190 1191 1
   887 1190 1192 1
   888 1193 1194 1
   889 1194 1195 1
   890 1195 1197 1
   891 1195 1196 1
   892 1196 1201 1
   893 1197 1198 1
   894 1197 1199 1
   895 1199 1200 1
   896 1199 1201 1
   897 1201 1202 1
   898 1202 1211 ar
   899 1202 1203 ar
   900 1203 1204 ar
   901 1204 1205 ar
   902 1205 1211 ar
   903 1205 1206 ar
   904 1206 1207 1
   905 1206 1208 ar
   906 1208 1209 ar
   907 1209 1210 ar
   908 1210 1211 ar
   909 1168 1190 1
   910 1223 1224 1
   911 1223 1225 1
   912 1223 1226 1
   913 1226 1227 1
   914 1227 1228 1
   915 1228 1230 1
   916 1228 1229 1
   917 1229 1234 1
   918 1230 1232 1
   919 1230 1231 1
   920 1232 1233 1
   921 1232 1234 1
   922 1234 1235 1
   923 1235 1236 am
   924 1235 1242 1
   925 1236 1238 1
   926 1236 1237 2
   927 1238 1239 2
   928 1239 1241 2
   929 1239 1240 2
   930 1241 1242 2
   931 1198 1223 1
   932 1254 1255 1
   933 1254 1256 1
   934 1254 1257 1
   935 1257 1258 1
   936 1258 1259 1
   937 1259 1261 1
   938 1259 1260 1
   939 1260 1265 1
   940 1261 1263 1
   941 1261 1262 1
   942 1263 1264 1
   943 1263 1265 1
   944 1265 1266 1
   945 1266 1267 am
   946 1266 1273 1
   947 1267 1269 1
   948 1267 1268 2
   949 1269 1270 2
   950 1270 1272 2
   951 1270 1271 2
   952 1272 1273 2
   953 1231 1254 1
   954 1285 1287 1
   955 1285 1288 1
   956 1285 1286 1
   957 1288 1289 1
   958 1289 1290 1
   959 1290 1291 1
   960 1290 1292 1
   961 1291 1296 1
   962 1292 1293 1
   963 1292 1294 1
   964 1294 1295 1
   965 1294 1296 1
   966 1296 1297 1
   967 1297 1307 ar
   968 1297 1298 ar
   969 1298 1299 ar
   970 1299 1300 ar
   971 1300 1307 ar
   972 1300 1301 1
   973 1301 1303 am
   974 1301 1302 2
   975 1303 1304 1
   976 1304 1305 2
   977 1304 1306 2
   978 1306 1307 1
   979 1262 1285 1
   980 1319 1321 1
   981 1319 1322 1
   982 1319 1320 1
   983 1322 1323 1
   984 1323 1324 1
   985 1324 1325 1
   986 1324 1326 1
   987 1325 1330 1
   988 1326 1327 1
   989 1326 1328 1
   990 1328 1329 1
   991 1328 1330 1
   992 1330 1331 1
   993 1331 1341 ar
   994 1331 1332 ar
   995 1332 1333 ar
   996 1333 1334 ar
   997 1334 1341 ar
   998 1334 1335 1
   999 1335 1337 am
  1000 1335 1336 2
  1001 1337 1338 1
  1002 1338 1339 2
  1003 1338 1340 2
  1004 1340 1341 1
  1005 1293 1319 1
  1006 1353 1355 1
  1007 1353 1356 1
  1008 1353 1354 1
  1009 1356 1357 1
  1010 1357 1358 1
  1011 1358 1359 1
  1012 1358 1360 1
  1013 1359 1364 1
  1014 1360 1361 1
  1015 1360 1362 1
  1016 1362 1363 1
  1017 1362 1364 1
  1018 1364 1365 1
  1019 1365 1375 ar
  1020 1365 1366 ar
  1021 1366 1367 ar
  1022 1367 1368 ar
  1023 1368 1375 ar
  1024 1368 1369 1
  1025 1369 1371 am
  1026 1369 1370 2
  1027 1371 1372 1
  1028 1372 1373 2
  1029 1372 1374 2
  1030 1374 1375 1
  1031 1327 1353 1
  1032 1387 1388 1
  1033 1387 1389 1
  1034 1387 1390 1
  1035 1390 1391 1
  1036 1391 1392 1
  1037 1392 1394 1
  1038 1392 1393 1
  1039 1393 1398 1
  1040 1394 1396 1
  1041 1394 1395 1
  1042 1396 1397 1
  1043 1396 1398 1
  1044 1398 1399 1
  1045 1399 1400 am
  1046 1399 1406 1
  1047 1400 1402 1
  1048 1400 1401 2
  1049 1402 1403 2
  1050 1403 1405 2
  1051 1403 1404 2
  1052 1405 1406 2
  1053 1361 1387 1
  1054 1418 1421 1
  1055 1418 1419 1
  1056 1418 1420 1
  1057 1421 1422 1
  1058 1422 1423 1
  1059 1423 1425 1
  1060 1423 1424 1
  1061 1424 1429 1
  1062 1425 1426 1
  1063 1425 1427 1
  1064 1427 1428 1
  1065 1427 1429 1
  1066 1429 1430 1
  1067 1430 1439 ar
  1068 1430 1431 ar
  1069 1431 1432 ar
  1070 1432 1433 ar
  1071 1433 1439 ar
  1072 1433 1434 ar
  1073 1434 1435 1
  1074 1434 1436 ar
  1075 1436 1437 ar
  1076 1437 1438 ar
  1077 1438 1439 ar
  1078 1395 1418 1
  1079 1451 1452 1
  1080 1451 1453 1
  1081 1451 1454 1
  1082 1454 1455 1
  1083 1455 1456 1
  1084 1456 1458 1
  1085 1456 1457 1
  1086 1457 1462 1
  1087 1458 1460 1
  1088 1458 1459 1
  1089 1460 1461 1
  1090 1460 1462 1
  1091 1462 1463 1
  1092 1463 1464 am
  1093 1463 1470 1
  1094 1464 1466 1
  1095 1464 1465 2
  1096 1466 1467 2
  1097 1467 1469 2
  1098 1467 1468 2
  1099 1469 1470 2
  1100 1426 1451 1
  1101 1482 1483 1
  1102 1482 1484 1
  1103 1482 1485 1
  1104 1485 1486 1
  1105 1486 1487 1
  1106 1487 1489 1
  1107 1487 1488 1
  1108 1488 1493 1
  1109 1489 1491 1
  1110 1489 1490 1
  1111 1491 1492 1
  1112 1491 1493 1
  1113 1493 1494 1
  1114 1494 1495 am
  1115 1494 1501 1
  1116 1495 1497 1
  1117 1495 1496 2
  1118 1497 1498 2
  1119 1498 1500 2
  1120 1498 1499 2
  1121 1500 1501 2
  1122 1459 1482 1
  1123 1513 1515 1
  1124 1513 1516 1
  1125 1513 1514 1
  1126 1516 1517 1
  1127 1517 1518 1
  1128 1518 1519 1
  1129 1518 1520 1
  1130 1519 1524 1
  1131 1520 1521 1
  1132 1520 1522 1
  1133 1522 1523 1
  1134 1522 1524 1
  1135 1524 1525 1
  1136 1525 1535 ar
  1137 1525 1526 ar
  1138 1526 1527 ar
  1139 1527 1528 ar
  1140 1528 1535 ar
  1141 1528 1529 1
  1142 1529 1531 am
  1143 1529 1530 2
  1144 1531 1532 1
  1145 1532 1533 2
  1146 1532 1534 2
  1147 1534 1535 1
  1148 1490 1513 1
  1149 1547 1548 1
  1150 1547 1549 1
  1151 1547 1550 1
  1152 1550 1551 1
  1153 1551 1552 1
  1154 1552 1554 1
  1155 1552 1553 1
  1156 1553 1558 1
  1157 1554 1556 1
  1158 1554 1555 1
  1159 1556 1557 1
  1160 1556 1558 1
  1161 1558 1559 1
  1162 1559 1560 am
  1163 1559 1566 1
  1164 1560 1561 2
  1165 1560 1562 am
  1166 1562 1563 am
  1167 1563 1565 1
  1168 1563 1564 2
  1169 1565 1566 2
  1170 1521 1547 1
  1171 1577 1580 1
  1172 1577 1578 1
  1173 1577 1579 1
  1174 1580 1581 1
  1175 1581 1582 1
  1176 1582 1584 1
  1177 1582 1583 1
  1178 1583 1588 1
  1179 1584 1585 1
  1180 1584 1586 1
  1181 1586 1587 1
  1182 1586 1588 1
  1183 1588 1589 1
  1184 1589 1598 ar
  1185 1589 1590 ar
  1186 1590 1591 ar
  1187 1591 1592 ar
  1188 1592 1598 ar
  1189 1592 1593 ar
  1190 1593 1594 1
  1191 1593 1595 ar
  1192 1595 1596 ar
  1193 1596 1597 ar
  1194 1597 1598 ar
  1195 1555 1577 1
  1196 1610 1613 1
  1197 1610 1611 1
  1198 1610 1612 1
  1199 1613 1614 1
  1200 1614 1615 1
  1201 1615 1617 1
  1202 1615 1616 1
  1203 1616 1621 1
  1204 1617 1618 1
  1205 1617 1619 1
  1206 1619 1620 1
  1207 1619 1621 1
  1208 1621 1622 1
  1209 1622 1631 ar
  1210 1622 1623 ar
  1211 1623 1624 ar
  1212 1624 1625 ar
  1213 1625 1631 ar
  1214 1625 1626 ar
  1215 1626 1627 1
  1216 1626 1628 ar
  1217 1628 1629 ar
  1218 1629 1630 ar
  1219 1630 1631 ar
  1220 1585 1610 1
  1221 1643 1646 1
  1222 1643 1644 1
  1223 1643 1645 1
  1224 1646 1647 1
  1225 1647 1648 1
  1226 1648 1650 1
  1227 1648 1649 1
  1228 1649 1654 1
  1229 1650 1651 1
  1230 1650 1652 1
  1231 1652 1653 1
  1232 1652 1654 1
  1233 1654 1655 1
  1234 1655 1664 ar
  1235 1655 1656 ar
  1236 1656 1657 ar
  1237 1657 1658 ar
  1238 1658 1664 ar
  1239 1658 1659 ar
  1240 1659 1660 1
  1241 1659 1661 ar
  1242 1661 1662 ar
  1243 1662 1663 ar
  1244 1663 1664 ar
  1245 1618 1643 1
  1246 1676 1677 1
  1247 1676 1678 1
  1248 1676 1679 1
  1249 1679 1680 1
  1250 1680 1681 1
  1251 1681 1683 1
  1252 1681 1682 1
  1253 1682 1687 1
  1254 1683 1685 1
  1255 1683 1684 1
  1256 1685 1686 1
  1257 1685 1687 1
  1258 1687 1688 1
  1259 1688 1689 am
  1260 1688 1695 1
  1261 1689 1690 2
  1262 1689 1691 am
  1263 1691 1692 am
  1264 1692 1694 1
  1265 1692 1693 2
  1266 1694 1695 2
  1267 1651 1676 1
  1268 1706 1708 1
  1269 1706 1709 1
  1270 1706 1707 1
  1271 1709 1710 1
  1272 1710 1711 1
  1273 1711 1712 1
  1274 1711 1713 1
  1275 1712 1717 1
  1276 1713 1714 1
  1277 1713 1715 1
  1278 1715 1716 1
  1279 1715 1717 1
  1280 1717 1718 1
  1281 1718 1728 ar
  1282 1718 1719 ar
  1283 1719 1720 ar
  1284 1720 1721 ar
  1285 1721 1728 ar
  1286 1721 1722 1
  1287 1722 1724 am
  1288 1722 1723 2
  1289 1724 1725 1
  1290 1725 1726 2
  1291 1725 1727 2
  1292 1727 1728 1
  1293 1684 1706 1
  1294 1740 1741 1
  1295 1740 1742 1
  1296 1740 1743 1
  1297 1743 1744 1
  1298 1744 1745 1
  1299 1745 1747 1
  1300 1745 1746 1
  1301 1746 1751 1
  1302 1747 1749 1
  1303 1747 1748 1
  1304 1749 1750 1
  1305 1749 1751 1
  1306 1751 1752 1
  1307 1752 1753 am
  1308 1752 1759 1
  1309 1753 1754 2
  1310 1753 1755 am
  1311 1755 1756 am
  1312 1756 1758 1
  1313 1756 1757 2
  1314 1758 1759 2
  1315 1714 1740 1
  1316 1770 1771 1
  1317 1770 1772 1
  1318 1770 1773 1
  1319 1773 1774 1
  1320 1774 1775 1
  1321 1775 1777 1
  1322 1775 1776 1
  1323 1776 1781 1
  1324 1777 1779 1
  1325 1777 1778 1
  1326 1779 1780 1
  1327 1779 1781 1
  1328 1781 1782 1
  1329 1782 1783 am
  1330 1782 1789 1
  1331 1783 1785 1
  1332 1783 1784 2
  1333 1785 1786 2
  1334 1786 1788 2
  1335 1786 1787 2
  1336 1788 1789 2
  1337 1748 1770 1
  1338 1801 1802 1
  1339 1801 1803 1
  1340 1801 1804 1
  1341 1804 1805 1
  1342 1805 1806 1
  1343 1806 1808 1
  1344 1806 1807 1
  1345 1807 1812 1
  1346 1808 1810 1
  1347 1808 1809 1
  1348 1810 1811 1
  1349 1810 1812 1
  1350 1812 1813 1
  1351 1813 1814 am
  1352 1813 1820 1
  1353 1814 1816 1
  1354 1814 1815 2
  1355 1816 1817 2
  1356 1817 1819 2
  1357 1817 1818 2
  1358 1819 1820 2
  1359 1778 1801 1
  1360 1832 1834 1
  1361 1832 1835 1
  1362 1832 1833 1
  1363 1835 1836 1
  1364 1836 1837 1
  1365 1837 1838 1
  1366 1837 1839 1
  1367 1838 1843 1
  1368 1839 1840 1
  1369 1839 1841 1
  1370 1841 1842 1
  1371 1841 1843 1
  1372 1843 1844 1
  1373 1844 1854 ar
  1374 1844 1845 ar
  1375 1845 1846 ar
  1376 1846 1847 ar
  1377 1847 1854 ar
  1378 1847 1848 1
  1379 1848 1850 am
  1380 1848 1849 2
  1381 1850 1851 1
  1382 1851 1852 2
  1383 1851 1853 2
  1384 1853 1854 1
  1385 1809 1832 1
  1386 1866 1869 1
  1387 1866 1867 1
  1388 1866 1868 1
  1389 1869 1870 1
  1390 1870 1871 1
  1391 1871 1873 1
  1392 1871 1872 1
  1393 1872 1877 1
  1394 1873 1874 1
  1395 1873 1875 1
  1396 1875 1876 1
  1397 1875 1877 1
  1398 1877 1878 1
  1399 1878 1887 ar
  1400 1878 1879 ar
  1401 1879 1880 ar
  1402 1880 1881 ar
  1403 1881 1887 ar
  1404 1881 1882 ar
  1405 1882 1883 1
  1406 1882 1884 ar
  1407 1884 1885 ar
  1408 1885 1886 ar
  1409 1886 1887 ar
  1410 1840 1866 1
  1411 1899 1900 1
  1412 1899 1901 1
  1413 1899 1902 1
  1414 1902 1903 1
  1415 1903 1904 1
  1416 1904 1906 1
  1417 1904 1905 1
  1418 1905 1910 1
  1419 1906 1908 1
  1420 1906 1907 1
  1421 1908 1909 1
  1422 1908 1910 1
  1423 1910 1911 1
  1424 1911 1912 am
  1425 1911 1918 1
  1426 1912 1914 1
  1427 1912 1913 2
  1428 1914 1915 2
  1429 1915 1917 2
  1430 1915 1916 2
  1431 1917 1918 2
  1432 1874 1899 1
  1433 1930 1931 1
  1434 1930 1932 1
  1435 1930 1933 1
  1436 1933 1934 1
  1437 1934 1935 1
  1438 1935 1937 1
  1439 1935 1936 1
  1440 1936 1941 1
  1441 1937 1939 1
  1442 1937 1938 1
  1443 1939 1940 1
  1444 1939 1941 1
  1445 1941 1942 1
  1446 1942 1943 am
  1447 1942 1949 1
  1448 1943 1944 2
  1449 1943 1945 am
  1450 1945 1946 am
  1451 1946 1948 1
  1452 1946 1947 2
  1453 1948 1949 2
  1454 1907 1930 1
  1455 1960 1963 1
  1456 1960 1961 1
  1457 1960 1962 1
  1458 1963 1964 1
  1459 1964 1965 1
  1460 1965 1967 1
  1461 1965 1966 1
  1462 1966 1971 1
  1463 1967 1968 1
  1464 1967 1969 1
  1465 1969 1970 1
  1466 1969 1971 1
  1467 1971 1972 1
  1468 1972 1981 ar
  1469 1972 1973 ar
  1470 1973 1974 ar
  1471 1974 1975 ar
  1472 1975 1981 ar
  1473 1975 1976 ar
  1474 1976 1977 1
  1475 1976 1978 ar
  1476 1978 1979 ar
  1477 1979 1980 ar
  1478 1980 1981 ar
  1479 1938 1960 1
  1480 1993 1994 1
  1481 1993 1995 1
  1482 1993 1996 1
  1483 1996 1997 1
  1484 1997 1998 1
  1485 1998 2000 1
  1486 1998 1999 1
  1487 1999 2004 1
  1488 2000 2002 1
  1489 2000 2001 1
  1490 2002 2003 1
  1491 2002 2004 1
  1492 2004 2005 1
  1493 2005 2006 am
  1494 2005 2012 1
  1495 2006 2007 2
  1496 2006 2008 am
  1497 2008 2009 am
  1498 2009 2011 1
  1499 2009 2010 2
  1500 2011 2012 2
  1501 1968 1993 1
  1502 2023 2025 1
  1503 2023 2026 1
  1504 2023 2024 1
  1505 2026 2027 1
  1506 2027 2028 1
  1507 2028 2029 1
  1508 2028 2030 1
  1509 2029 2034 1
  1510 2030 2031 1
  1511 2030 2032 1
  1512 2032 2033 1
  1513 2032 2034 1
  1514 2034 2035 1
  1515 2035 2045 ar
  1516 2035 2036 ar
  1517 2036 2037 ar
  1518 2037 2038 ar
  1519 2038 2045 ar
  1520 2038 2039 1
  1521 2039 2041 am
  1522 2039 2040 2
  1523 2041 2042 1
  1524 2042 2043 2
  1525 2042 2044 2
  1526 2044 2045 1
  1527 2001 2023 1
  1528 2057 2058 1
  1529 2057 2059 1
  1530 2057 2060 1
  1531 2060 2061 1
  1532 2061 2062 1
  1533 2062 2064 1
  1534 2062 2063 1
  1535 2063 2068 1
  1536 2064 2066 1
  1537 2064 2065 1
  1538 2066 2067 1
  1539 2066 2068 1
  1540 2068 2069 1
  1541 2069 2070 am
  1542 2069 2076 1
  1543 2070 2071 2
  1544 2070 2072 am
  1545 2072 2073 am
  1546 2073 2075 1
  1547 2073 2074 2
  1548 2075 2076 2
  1549 2031 2057 1
  1550 2087 2088 1
  1551 2087 2089 1
  1552 2087 2090 1
  1553 2090 2091 1
  1554 2091 2092 1
  1555 2092 2094 1
  1556 2092 2093 1
  1557 2093 2098 1
  1558 2094 2096 1
  1559 2094 2095 1
  1560 2096 2097 1
  1561 2096 2098 1
  1562 2098 2099 1
  1563 2099 2100 am
  1564 2099 2106 1
  1565 2100 2102 1
  1566 2100 2101 2
  1567 2102 2103 2
  1568 2103 2105 2
  1569 2103 2104 2
  1570 2105 2106 2
  1571 2065 2087 1
  1572 2121 2122 1
  1573 2122 2123 1
  1574 2123 2125 1
  1575 2123 2124 1
  1576 2124 2129 1
  1577 2125 2127 1
  1578 2125 2126 1
  1579 2127 2128 1
  1580 2127 2129 1
  1581 2129 2130 1
  1582 2130 2137 1
  1583 2130 2131 am
  1584 2131 2132 2
  1585 2131 2133 1
  1586 2133 2134 2
  1587 2134 2136 2
  1588 2134 2135 2
  1589 2136 2137 2
  1590 2118 2119 1
  1591 2118 2120 1
  1592 2118 2121 1
  1593 2095 2118 1
  1594   21    2 1
  1595   22    2 1
  1596   23    3 1
  1597   24    5 1
  1598   25    7 1
  1599   26    9 1
  1600   27   11 1
  1601   28   16 1
  1602   56   37 1
  1603   57   37 1
  1604   58   38 1
  1605   59   40 1
  1606   60   42 1
  1607   61   44 1
  1608   62   46 1
  1609   63   51 1
  1610   89   71 1
  1611   90   71 1
  1612   91   72 1
  1613   92   74 1
  1614   93   76 1
  1615   94   78 1
  1616   95   80 1
  1617   96   86 1
  1618  120  104 1
  1619  121  104 1
  1620  122  105 1
  1621  123  107 1
  1622  124  109 1
  1623  125  111 1
  1624  126  118 1
  1625  127  119 1
  1626  153  135 1
  1627  154  135 1
  1628  155  136 1
  1629  156  138 1
  1630  157  140 1
  1631  158  142 1
  1632  159  144 1
  1633  160  150 1
  1634  184  168 1
  1635  185  168 1
  1636  186  169 1
  1637  187  171 1
  1638  188  173 1
  1639  189  175 1
  1640  190  179 1
  1641  191  182 1
  1642  192  183 1
  1643  216  198 1
  1644  217  198 1
  1645  218  199 1
  1646  219  201 1
  1647  220  203 1
  1648  221  205 1
  1649  222  207 1
  1650  223  213 1
  1651  247  231 1
  1652  248  231 1
  1653  249  232 1
  1654  250  234 1
  1655  251  236 1
  1656  252  238 1
  1657  253  242 1
  1658  254  245 1
  1659  255  246 1
  1660  279  261 1
  1661  280  261 1
  1662  281  262 1
  1663  282  264 1
  1664  283  266 1
  1665  284  268 1
  1666  285  270 1
  1667  286  276 1
  1668  312  294 1
  1669  313  294 1
  1670  314  295 1
  1671  315  297 1
  1672  316  299 1
  1673  317  301 1
  1674  318  303 1
  1675  319  309 1
  1676  345  327 1
  1677  346  327 1
  1678  347  328 1
  1679  348  330 1
  1680  349  332 1
  1681  350  334 1
  1682  351  336 1
  1683  352  342 1
  1684  376  360 1
  1685  377  360 1
  1686  378  361 1
  1687  379  363 1
  1688  380  365 1
  1689  381  367 1
  1690  382  374 1
  1691  383  375 1
  1692  410  391 1
  1693  411  391 1
  1694  412  392 1
  1695  413  394 1
  1696  414  396 1
  1697  415  398 1
  1698  416  400 1
  1699  417  405 1
  1700  441  425 1
  1701  442  425 1
  1702  443  426 1
  1703  444  428 1
  1704  445  430 1
  1705  446  432 1
  1706  447  439 1
  1707  448  440 1
  1708  475  456 1
  1709  476  456 1
  1710  477  457 1
  1711  478  459 1
  1712  479  461 1
  1713  480  463 1
  1714  481  465 1
  1715  482  470 1
  1716  506  490 1
  1717  507  490 1
  1718  508  491 1
  1719  509  493 1
  1720  510  495 1
  1721  511  497 1
  1722  512  501 1
  1723  513  504 1
  1724  514  505 1
  1725  539  520 1
  1726  540  520 1
  1727  541  521 1
  1728  542  523 1
  1729  543  525 1
  1730  544  527 1
  1731  545  529 1
  1732  546  534 1
  1733  573  554 1
  1734  574  554 1
  1735  575  555 1
  1736  576  557 1
  1737  577  559 1
  1738  578  561 1
  1739  579  563 1
  1740  580  568 1
  1741  606  588 1
  1742  607  588 1
  1743  608  589 1
  1744  609  591 1
  1745  610  593 1
  1746  611  595 1
  1747  612  597 1
  1748  613  603 1
  1749  637  621 1
  1750  638  621 1
  1751  639  622 1
  1752  640  624 1
  1753  641  626 1
  1754  642  628 1
  1755  643  632 1
  1756  644  635 1
  1757  645  636 1
  1758  669  651 1
  1759  670  651 1
  1760  671  652 1
  1761  672  654 1
  1762  673  656 1
  1763  674  658 1
  1764  675  660 1
  1765  676  666 1
  1766  700  684 1
  1767  701  684 1
  1768  702  685 1
  1769  703  687 1
  1770  704  689 1
  1771  705  691 1
  1772  706  695 1
  1773  707  698 1
  1774  708  699 1
  1775  733  714 1
  1776  734  714 1
  1777  735  715 1
  1778  736  717 1
  1779  737  719 1
  1780  738  721 1
  1781  739  723 1
  1782  740  728 1
  1783  767  748 1
  1784  768  748 1
  1785  769  749 1
  1786  770  751 1
  1787  771  753 1
  1788  772  755 1
  1789  773  757 1
  1790  774  762 1
  1791  798  782 1
  1792  799  782 1
  1793  800  783 1
  1794  801  785 1
  1795  802  787 1
  1796  803  789 1
  1797  804  796 1
  1798  805  797 1
  1799  831  813 1
  1800  832  813 1
  1801  833  814 1
  1802  834  816 1
  1803  835  818 1
  1804  836  820 1
  1805  837  822 1
  1806  838  828 1
  1807  862  846 1
  1808  863  846 1
  1809  864  847 1
  1810  865  849 1
  1811  866  851 1
  1812  867  853 1
  1813  868  860 1
  1814  869  861 1
  1815  896  877 1
  1816  897  877 1
  1817  898  878 1
  1818  899  880 1
  1819  900  882 1
  1820  901  884 1
  1821  902  886 1
  1822  903  891 1
  1823  927  911 1
  1824  928  911 1
  1825  929  912 1
  1826  930  914 1
  1827  931  916 1
  1828  932  918 1
  1829  933  925 1
  1830  934  926 1
  1831  961  942 1
  1832  962  942 1
  1833  963  943 1
  1834  964  945 1
  1835  965  947 1
  1836  966  949 1
  1837  967  951 1
  1838  968  956 1
  1839  994  976 1
  1840  995  976 1
  1841  996  977 1
  1842  997  979 1
  1843  998  981 1
  1844  999  983 1
  1845 1000  985 1
  1846 1001  991 1
  1847 1028 1009 1
  1848 1029 1009 1
  1849 1030 1010 1
  1850 1031 1012 1
  1851 1032 1014 1
  1852 1033 1016 1
  1853 1034 1018 1
  1854 1035 1023 1
  1855 1059 1043 1
  1856 1060 1043 1
  1857 1061 1044 1
  1858 1062 1046 1
  1859 1063 1048 1
  1860 1064 1050 1
  1861 1065 1054 1
  1862 1066 1057 1
  1863 1067 1058 1
  1864 1089 1073 1
  1865 1090 1073 1
  1866 1091 1074 1
  1867 1092 1076 1
  1868 1093 1078 1
  1869 1094 1080 1
  1870 1095 1084 1
  1871 1096 1087 1
  1872 1097 1088 1
  1873 1119 1103 1
  1874 1120 1103 1
  1875 1121 1104 1
  1876 1122 1106 1
  1877 1123 1108 1
  1878 1124 1110 1
  1879 1125 1114 1
  1880 1126 1117 1
  1881 1127 1118 1
  1882 1149 1133 1
  1883 1150 1133 1
  1884 1151 1134 1
  1885 1152 1136 1
  1886 1153 1138 1
  1887 1154 1140 1
  1888 1155 1147 1
  1889 1156 1148 1
  1890 1180 1164 1
  1891 1181 1164 1
  1892 1182 1165 1
  1893 1183 1167 1
  1894 1184 1169 1
  1895 1185 1171 1
  1896 1186 1175 1
  1897 1187 1178 1
  1898 1188 1179 1
  1899 1212 1194 1
  1900 1213 1194 1
  1901 1214 1195 1
  1902 1215 1197 1
  1903 1216 1199 1
  1904 1217 1201 1
  1905 1218 1203 1
  1906 1219 1209 1
  1907 1243 1227 1
  1908 1244 1227 1
  1909 1245 1228 1
  1910 1246 1230 1
  1911 1247 1232 1
  1912 1248 1234 1
  1913 1249 1241 1
  1914 1250 1242 1
  1915 1274 1258 1
  1916 1275 1258 1
  1917 1276 1259 1
  1918 1277 1261 1
  1919 1278 1263 1
  1920 1279 1265 1
  1921 1280 1272 1
  1922 1281 1273 1
  1923 1308 1289 1
  1924 1309 1289 1
  1925 1310 1290 1
  1926 1311 1292 1
  1927 1312 1294 1
  1928 1313 1296 1
  1929 1314 1298 1
  1930 1315 1303 1
  1931 1342 1323 1
  1932 1343 1323 1
  1933 1344 1324 1
  1934 1345 1326 1
  1935 1346 1328 1
  1936 1347 1330 1
  1937 1348 1332 1
  1938 1349 1337 1
  1939 1376 1357 1
  1940 1377 1357 1
  1941 1378 1358 1
  1942 1379 1360 1
  1943 1380 1362 1
  1944 1381 1364 1
  1945 1382 1366 1
  1946 1383 1371 1
  1947 1407 1391 1
  1948 1408 1391 1
  1949 1409 1392 1
  1950 1410 1394 1
  1951 1411 1396 1
  1952 1412 1398 1
  1953 1413 1405 1
  1954 1414 1406 1
  1955 1440 1422 1
  1956 1441 1422 1
  1957 1442 1423 1
  1958 1443 1425 1
  1959 1444 1427 1
  1960 1445 1429 1
  1961 1446 1431 1
  1962 1447 1437 1
  1963 1471 1455 1
  1964 1472 1455 1
  1965 1473 1456 1
  1966 1474 1458 1
  1967 1475 1460 1
  1968 1476 1462 1
  1969 1477 1469 1
  1970 1478 1470 1
  1971 1502 1486 1
  1972 1503 1486 1
  1973 1504 1487 1
  1974 1505 1489 1
  1975 1506 1491 1
  1976 1507 1493 1
  1977 1508 1500 1
  1978 1509 1501 1
  1979 1536 1517 1
  1980 1537 1517 1
  1981 1538 1518 1
  1982 1539 1520 1
  1983 1540 1522 1
  1984 1541 1524 1
  1985 1542 1526 1
  1986 1543 1531 1
  1987 1567 1551 1
  1988 1568 1551 1
  1989 1569 1552 1
  1990 1570 1554 1
  1991 1571 1556 1
  1992 1572 1558 1
  1993 1573 1562 1
  1994 1574 1565 1
  1995 1575 1566 1
  1996 1599 1581 1
  1997 1600 1581 1
  1998 1601 1582 1
  1999 1602 1584 1
  2000 1603 1586 1
  2001 1604 1588 1
  2002 1605 1590 1
  2003 1606 1596 1
  2004 1632 1614 1
  2005 1633 1614 1
  2006 1634 1615 1
  2007 1635 1617 1
  2008 1636 1619 1
  2009 1637 1621 1
  2010 1638 1623 1
  2011 1639 1629 1
  2012 1665 1647 1
  2013 1666 1647 1
  2014 1667 1648 1
  2015 1668 1650 1
  2016 1669 1652 1
  2017 1670 1654 1
  2018 1671 1656 1
  2019 1672 1662 1
  2020 1696 1680 1
  2021 1697 1680 1
  2022 1698 1681 1
  2023 1699 1683 1
  2024 1700 1685 1
  2025 1701 1687 1
  2026 1702 1691 1
  2027 1703 1694 1
  2028 1704 1695 1
  2029 1729 1710 1
  2030 1730 1710 1
  2031 1731 1711 1
  2032 1732 1713 1
  2033 1733 1715 1
  2034 1734 1717 1
  2035 1735 1719 1
  2036 1736 1724 1
  2037 1760 1744 1
  2038 1761 1744 1
  2039 1762 1745 1
  2040 1763 1747 1
  2041 1764 1749 1
  2042 1765 1751 1
  2043 1766 1755 1
  2044 1767 1758 1
  2045 1768 1759 1
  2046 1790 1774 1
  2047 1791 1774 1
  2048 1792 1775 1
  2049 1793 1777 1
  2050 1794 1779 1
  2051 1795 1781 1
  2052 1796 1788 1
  2053 1797 1789 1
  2054 1821 1805 1
  2055 1822 1805 1
  2056 1823 1806 1
  2057 1824 1808 1
  2058 1825 1810 1
  2059 1826 1812 1
  2060 1827 1819 1
  2061 1828 1820 1
  2062 1855 1836 1
  2063 1856 1836 1
  2064 1857 1837 1
  2065 1858 1839 1
  2066 1859 1841 1
  2067 1860 1843 1
  2068 1861 1845 1
  2069 1862 1850 1
  2070 1888 1870 1
  2071 1889 1870 1
  2072 1890 1871 1
  2073 1891 1873 1
  2074 1892 1875 1
  2075 1893 1877 1
  2076 1894 1879 1
  2077 1895 1885 1
  2078 1919 1903 1
  2079 1920 1903 1
  2080 1921 1904 1
  2081 1922 1906 1
  2082 1923 1908 1
  2083 1924 1910 1
  2084 1925 1917 1
  2085 1926 1918 1
  2086 1950 1934 1
  2087 1951 1934 1
  2088 1952 1935 1
  2089 1953 1937 1
  2090 1954 1939 1
  2091 1955 1941 1
  2092 1956 1945 1
  2093 1957 1948 1
  2094 1958 1949 1
  2095 1982 1964 1
  2096 1983 1964 1
  2097 1984 1965 1
  2098 1985 1967 1
  2099 1986 1969 1
  2100 1987 1971 1
  2101 1988 1973 1
  2102 1989 1979 1
  2103 2013 1997 1
  2104 2014 1997 1
  2105 2015 1998 1
  2106 2016 2000 1
  2107 2017 2002 1
  2108 2018 2004 1
  2109 2019 2008 1
  2110 2020 2011 1
  2111 2021 2012 1
  2112 2046 2027 1
  2113 2047 2027 1
  2114 2048 2028 1
  2115 2049 2030 1
  2116 2050 2032 1
  2117 2051 2034 1
  2118 2052 2036 1
  2119 2053 2041 1
  2120 2077 2061 1
  2121 2078 2061 1
  2122 2079 2062 1
  2123 2080 2064 1
  2124 2081 2066 1
  2125 2082 2068 1
  2126 2083 2072 1
  2127 2084 2075 1
  2128 2085 2076 1
  2129 2107 2091 1
  2130 2108 2091 1
  2131 2109 2092 1
  2132 2110 2094 1
  2133 2111 2096 1
  2134 2112 2098 1
  2135 2113 2105 1
  2136 2114 2106 1
  2137 2138 2122 1
  2138 2139 2122 1
  2139 2140 2123 1
  2140 2141 2125 1
  2141 2142 2127 1
  2142 2143 2129 1
  2143 2144 2136 1
  2144 2145 2137 1
  2145   29   18 1
  2146   30   18 1
  2147   64   53 1
  2148   65   53 1
  2149  128  117 1
  2150  129  117 1
  2151  384  373 1
  2152  385  373 1
  2153  418  407 1
  2154  419  407 1
  2155  449  438 1
  2156  450  438 1
  2157  483  472 1
  2158  484  472 1
  2159  547  536 1
  2160  548  536 1
  2161  581  570 1
  2162  582  570 1
  2163  741  730 1
  2164  742  730 1
  2165  775  764 1
  2166  776  764 1
  2167  806  795 1
  2168  807  795 1
  2169  870  859 1
  2170  871  859 1
  2171  904  893 1
  2172  905  893 1
  2173  935  924 1
  2174  936  924 1
  2175  969  958 1
  2176  970  958 1
  2177 1036 1025 1
  2178 1037 1025 1
  2179 1157 1146 1
  2180 1158 1146 1
  2181 1251 1240 1
  2182 1252 1240 1
  2183 1282 1271 1
  2184 1283 1271 1
  2185 1316 1305 1
  2186 1317 1305 1
  2187 1350 1339 1
  2188 1351 1339 1
  2189 1384 1373 1
  2190 1385 1373 1
  2191 1415 1404 1
  2192 1416 1404 1
  2193 1479 1468 1
  2194 1480 1468 1
  2195 1510 1499 1
  2196 1511 1499 1
  2197 1544 1533 1
  2198 1545 1533 1
  2199 1737 1726 1
  2200 1738 1726 1
  2201 1798 1787 1
  2202 1799 1787 1
  2203 1829 1818 1
  2204 1830 1818 1
  2205 1863 1852 1
  2206 1864 1852 1
  2207 1927 1916 1
  2208 1928 1916 1
  2209 2054 2043 1
  2210 2055 2043 1
  2211 2115 2104 1
  2212 2116 2104 1
  2213 2146 2135 1
  2214 2147 2135 1
  2215  646  627 1
  2216 1128 1109 1
  2217 1512 1492 1
  2218  743  720 1
  2219  614  594 1
  2220 1959 1940 1
  2221 1068 1049 1
  2222   66   43 1
  2223 1002  982 1
  2224 1990 1970 1
  2225 1481 1461 1
  2226 1607 1587 1
  2227 1769 1750 1
  2228  515  496 1
  2229 2022 2003 1
  2230 2086 2067 1
  2231 1800 1780 1
  2232  224  204 1
  2233  906  883 1
  2234 1739 1716 1
  2235 1318 1295 1
  2236 1865 1842 1
  2237  161  141 1
  2238 1253 1233 1
  2239 1448 1435 1
  2240 1449 1435 1
  2241  320  307 1
  2242  321  307 1
  2243 1673 1660 1
  2244 1674 1660 1
  2245 1896 1883 1
  2246 1897 1883 1
  2247 1608 1594 1
  2248 1609 1594 1
  2249  839  826 1
  2250  840  826 1
  2251  287  274 1
  2252  288  274 1
  2253   97   84 1
  2254   98   84 1
  2255 1640 1627 1
  2256 1641 1627 1
  2257  615  601 1
  2258  616  601 1
  2259 1220 1207 1
  2260 1221 1207 1
  2261  162  148 1
  2262  163  148 1
  2263  677  664 1
  2264  678  664 1
  2265 1991 1977 1
  2266 1992 1977 1
  2267  353  340 1
  2268  354  340 1
  2269 1003  989 1
  2270 1004  989 1
  2271  225  211 1
  2272  226  211 1
  2273  679  657 1
  2274 1038 1015 1
  2275  322  300 1
  2276 1929 1909 1
  2277  130  110 1
  2278  872  852 1
  2279 1642 1620 1
  2280  583  560 1
  2281 1352 1329 1
  2282 1831 1811 1
  2283 1675 1653 1
  2284 1386 1363 1
  2285  937  917 1
  2286   99   77 1
  2287 1705 1686 1
  2288  193  174 1
  2289 1417 1397 1
  2290  971  948 1
  2291 2148 2126 1
  2292 1450 1428 1
  2293 2056 2033 1
  2294  709  690 1
  2295  256  237 1
  2296   31    1 1
  2297  420  397 1
  2298 1189 1170 1
  2299  289  267 1
  2300 2117 2097 1
  2301  451  431 1
  2302 1222 1200 1
  2303  777  754 1
  2304 2149 2128 1
  2305 1546 1523 1
  2306  485  462 1
  2307 1098 1079 1
  2308  808  788 1
  2309  355  333 1
  2310 1576 1557 1
  2311 1159 1139 1
  2312 1284 1264 1
  2313 1898 1876 1
  2314  841  819 1
  2315  386  366 1
  2316  549  526 1
  2317   32    8 1
@<TRIPOS>SUBSTRUCTURE
     1   G     3 RESIDUE           4 B       G     1 ROOT
     2   G    38 RESIDUE           4 B       G     2
     3   A    72 RESIDUE           4 B       A     2
     4   C   105 RESIDUE           4 B       C     2
     5   A   136 RESIDUE           4 B       A     2
     6   U   169 RESIDUE           4 B       U     2
     7   A   199 RESIDUE           4 B       A     2
     8   U   232 RESIDUE           4 B       U     2
     9   A   262 RESIDUE           4 B       A     2
    10   A   295 RESIDUE           4 B       A     2
    11   A   328 RESIDUE           4 B       A     2
    12   C   361 RESIDUE           4 B       C     2
    13   G   392 RESIDUE           4 B       G     2
    14   C   426 RESIDUE           4 B       C     2
    15   G   457 RESIDUE           4 B       G     2
    16   U   491 RESIDUE           4 B       U     2
    17   G   521 RESIDUE           4 B       G     2
    18   G   555 RESIDUE           4 B       G     2
    19   A   589 RESIDUE           4 B       A     2
    20   U   622 RESIDUE           4 B       U     2
    21   A   652 RESIDUE           4 B       A     2
    22   U   685 RESIDUE           4 B       U     2
    23   G   715 RESIDUE           4 B       G     2
    24   G   749 RESIDUE           4 B       G     2
    25   C   783 RESIDUE           4 B       C     2
    26   A   814 RESIDUE           4 B       A     2
    27   C   847 RESIDUE           4 B       C     2
    28   G   878 RESIDUE           4 B       G     2
    29   C   912 RESIDUE           4 B       C     2
    30   G   943 RESIDUE           4 B       G     2
    31   A   977 RESIDUE           4 B       A     2
    32   G  1010 RESIDUE           4 B       G     2
    33   U  1044 RESIDUE           4 B       U     2
    34   U  1074 RESIDUE           4 B       U     2
    35   U  1104 RESIDUE           4 B       U     2
    36   C  1134 RESIDUE           4 B       C     2
    37   U  1165 RESIDUE           4 B       U     2
    38   A  1195 RESIDUE           4 B       A     2
    39   C  1228 RESIDUE           4 B       C     2
    40   C  1259 RESIDUE           4 B       C     2
    41   G  1290 RESIDUE           4 B       G     2
    42   G  1324 RESIDUE           4 B       G     2
    43   G  1358 RESIDUE           4 B       G     2
    44   C  1392 RESIDUE           4 B       C     2
    45   A  1423 RESIDUE           4 B       A     2
    46   C  1456 RESIDUE           4 B       C     2
    47   C  1487 RESIDUE           4 B       C     2
    48   G  1518 RESIDUE           4 B       G     2
    49   U  1552 RESIDUE           4 B       U     2
    50   A  1582 RESIDUE           4 B       A     2
    51   A  1615 RESIDUE           4 B       A     2
    52   A  1648 RESIDUE           4 B       A     2
    53   U  1681 RESIDUE           4 B       U     2
    54   G  1711 RESIDUE           4 B       G     2
    55   U  1745 RESIDUE           4 B       U     2
    56   C  1775 RESIDUE           4 B       C     2
    57   C  1806 RESIDUE           4 B       C     2
    58   G  1837 RESIDUE           4 B       G     2
    59   A  1871 RESIDUE           4 B       A     2
    60   C  1904 RESIDUE           4 B       C     2
    61   U  1935 RESIDUE           4 B       U     2
    62   A  1965 RESIDUE           4 B       A     2
    63   U  1998 RESIDUE           4 B       U     2
    64   G  2028 RESIDUE           4 B       G     2
    65   U  2062 RESIDUE           4 B       U     2
    66   C  2092 RESIDUE           4 B       C     2
    67   C  2123 RESIDUE           4 B       C     1
