@<TRIPOS>MOLECULE
3GCA_ligand.pdb
18 19 1 0 0
SMALL
AMBER ff14SB


@<TRIPOS>ATOM
      1 N1         34.1500   33.9600   23.0350 N.am      1 PQ0   -0.5084
      2 C2         33.3460   32.6700   23.4820 C.2       1 PQ0    0.6858
      3 N3         33.8220   32.1560   24.5370 N.2       1 PQ0   -0.6841
      4 C4         34.8820   32.4990   25.2940 C.ar      1 PQ0    0.2001
      5 C5         35.6270   33.5770   24.9800 C.ar      1 PQ0   -0.2476
      6 C6         35.2020   34.4100   23.7070 C.2       1 PQ0    0.7501
      7 O6         35.8690   35.3570   23.4390 O.2       1 PQ0   -0.6055
      8 C7         36.7770   33.8160   25.9760 C.ar      1 PQ0   -0.0110
      9 C10        37.7820   34.9010   25.9110 C.1       1 PQ0    0.2648
     10 N11        38.5260   35.7820   25.8260 N.1       1 PQ0   -0.3588
     11 C8         36.6760   32.8260   26.8700 C.ar      1 PQ0   -0.1103
     12 N9         35.6370   31.9590   26.6630 N.ar      1 PQ0   -0.1651
     13 N2         32.2540   32.2680   22.7380 N.3       1 PQ0   -0.8928
     14 H1         33.8510   34.4578   22.2087 H         1 PQ0    0.3365
     15 H8         37.3643   32.7185   27.6953 H         1 PQ0    0.1840
     16 H9         35.3850   31.1595   27.2265 H         1 PQ0    0.3167
     17 H21        32.4025   31.3266   22.4037 H         1 PQ0    0.4218
     18 H22        31.4257   32.2935   23.3154 H         1 PQ0    0.4218
@<TRIPOS>BOND
     1    1    2 1
     2    1    6 am
     3    2    3 2
     4    2   13 1
     5    3    4 1
     6    4    5 ar
     7    4   12 ar
     8    5    6 1
     9    5    8 ar
    10    6    7 2
    11    8    9 1
    12    8   11 ar
    13    9   10 3
    14   11   12 ar
    15   14    1 1
    16   15   11 1
    17   16   12 1
    18   17   13 1
    19   18   13 1
@<TRIPOS>SUBSTRUCTURE
     1 PQ0     1 RESIDUE           4 A     PQ0     0 ROOT
