@<TRIPOS>MOLECULE
3GCA_RNA.pdb
1062 1146 33 0 0
NUCLEIC_ACID
AMBER ff14SB


@<TRIPOS>ATOM
      1 O5'        30.3640   49.5930   22.2500 O.3       1   C   -0.6223
      2 C5'        31.0440   50.7620   22.7030 C.3       1   C    0.0558
      3 C4'        31.3270   50.9430   24.1850 C.3       1   C    0.1065
      4 O4'        30.1270   50.7070   24.9650 O.3       1   C   -0.3548
      5 C3'        32.3120   50.0130   24.8610 C.3       1   C    0.2022
      6 O3'        33.6430   50.3810   24.6070 O.3       1   C   -0.5246
      7 C2'        32.0080   50.2660   26.3280 C.3       1   C    0.0670
      8 O2'        32.5560   51.4790   26.7980 O.3       1   C   -0.6139
      9 C1'        30.4910   50.3830   26.2980 C.3       1   C    0.0066
     10 N1         29.8530   49.1200   26.6870 N.am      1   C   -0.0484
     11 C2         29.8080   48.8050   28.0290 C.2       1   C    0.7538
     12 O2         30.3380   49.5890   28.8320 O.2       1   C   -0.6252
     13 N3         29.1960   47.6600   28.4290 N.2       1   C   -0.7584
     14 C4         28.6510   46.8490   27.5240 C.2       1   C    0.8185
     15 N4         28.0430   45.7370   27.9590 N.pl3     1   C   -0.9530
     16 C5         28.7030   47.1400   26.1360 C.2       1   C   -0.5215
     17 C6         29.3100   48.2750   25.7640 C.2       1   C    0.0053
     18 H5'        32.0068   50.7849   22.1926 H         1   C    0.0679
     19 H5''       30.4720   51.6273   22.3680 H         1   C    0.0679
     20 H4'        31.6512   51.9702   24.3519 H         1   C    0.1174
     21 H3'        32.1280   48.9734   24.5900 H         1   C    0.0615
     22 H2'        32.3253   49.4259   26.9457 H         1   C    0.0972
     23 H1'        30.1705   51.1789   26.9702 H         1   C    0.2029
     24 H5         28.2695   46.4716   25.4068 H         1   C    0.1928
     25 H6         29.3704   48.5253   24.7151 H         1   C    0.1958
     26 H41        27.6195   45.1015   27.2980 H         1   C    0.4234
     27 H42        28.0082   45.5343   28.9478 H         1   C    0.4234
     28 HO2'       32.8135   51.3793   27.7174 H         1   C    0.4186
     29 HO5'       30.2637   49.6301   21.2960 H         1   C    0.4295
     30 P          34.7920   49.2870   24.7760 P.3       2   U    1.1662
     31 OP1        36.0750   49.9510   24.4140 O.co2     2   U   -0.7760
     32 OP2        34.3570   48.0440   24.0690 O.co2     2   U   -0.7760
     33 O5'        34.8170   49.0070   26.3400 O.3       2   U   -0.4989
     34 C5'        35.2200   50.0350   27.2370 C.3       2   U    0.0558
     35 C4'        35.1060   49.5720   28.6620 C.3       2   U    0.1065
     36 O4'        33.7150   49.3140   28.9740 O.3       2   U   -0.3548
     37 C3'        35.7850   48.2660   29.0190 C.3       2   U    0.2022
     38 O3'        37.1810   48.4520   29.2240 O.3       2   U   -0.5246
     39 C2'        35.0780   47.9360   30.3260 C.3       2   U    0.0670
     40 O2'        35.5460   48.7250   31.4010 O.3       2   U   -0.6139
     41 C1'        33.6410   48.3380   30.0010 C.3       2   U    0.0674
     42 N1         32.8660   47.1920   29.5080 N.am      2   U    0.0418
     43 C2         32.4160   46.2850   30.4440 C.2       2   U    0.4687
     44 O2         32.6590   46.3880   31.6320 O.2       2   U   -0.5477
     45 N3         31.6770   45.2470   29.9440 N.am      2   U   -0.3549
     46 C4         31.3580   45.0190   28.6350 C.2       2   U    0.5952
     47 O4         30.7270   44.0030   28.3350 O.2       2   U   -0.5761
     48 C5         31.8710   45.9900   27.7220 C.2       2   U   -0.3635
     49 C6         32.5930   47.0200   28.1770 C.2       2   U   -0.1126
     50 H5'        36.2558   50.3042   27.0303 H         2   U    0.0679
     51 H5''       34.5852   50.9090   27.0909 H         2   U    0.0679
     52 H4'        35.4777   50.3568   29.3208 H         2   U    0.1174
     53 H3'        35.5951   47.5031   28.2640 H         2   U    0.0615
     54 H2'        35.1486   46.8729   30.5560 H         2   U    0.0972
     55 H1'        33.1623   48.7606   30.8844 H         2   U    0.1824
     56 H3         31.3299   44.5770   30.6153 H         2   U    0.3154
     57 H5         31.6760   45.8927   26.6642 H         2   U    0.1811
     58 H6         32.9742   47.7416   27.4697 H         2   U    0.2188
     59 HO2'       34.7984   49.0673   31.8965 H         2   U    0.4186
     60 P          38.1820   47.1900   29.1470 P.3       3   G    1.1662
     61 OP1        39.5370   47.8070   29.2010 O.co2     3   G   -0.7760
     62 OP2        37.8130   46.2870   28.0140 O.co2     3   G   -0.7760
     63 O5'        37.9070   46.3690   30.4890 O.3       3   G   -0.4989
     64 C5'        38.0270   46.9760   31.7780 C.3       3   G    0.0558
     65 C4'        37.6400   45.9820   32.8470 C.3       3   G    0.1065
     66 O4'        36.2120   45.7530   32.8340 O.3       3   G   -0.3548
     67 C3'        38.2000   44.6030   32.5980 C.3       3   G    0.2022
     68 O3'        39.5050   44.5140   33.0950 O.3       3   G   -0.5246
     69 C2'        37.2700   43.6990   33.3850 C.3       3   G    0.0670
     70 O2'        37.5700   43.6400   34.7600 O.3       3   G   -0.6139
     71 C1'        35.9440   44.4110   33.1950 C.3       3   G    0.0191
     72 N9         35.1860   43.7820   32.1130 N.ar      3   G    0.0492
     73 C8         35.1530   44.1410   30.8050 C.ar      3   G    0.1374
     74 N7         34.3590   43.3770   30.0990 N.ar      3   G   -0.5709
     75 C5         33.8560   42.4810   31.0100 C.ar      3   G    0.1744
     76 C6         32.9370   41.4270   30.8460 C.2       3   G    0.4770
     77 O6         32.3710   41.0640   29.8170 O.2       3   G   -0.5597
     78 N1         32.6920   40.7620   32.0350 N.am      3   G   -0.4787
     79 C2         33.2590   41.0680   33.2390 C.2       3   G    0.7657
     80 N2         32.8680   40.2910   34.2960 N.pl3     3   G   -0.9672
     81 N3         34.1290   42.0520   33.4040 N.2       3   G   -0.6323
     82 C4         34.3690   42.7060   32.2680 C.ar      3   G    0.1222
     83 H5'        39.0581   47.2930   31.9344 H         3   G    0.0679
     84 H5''       37.3686   47.8429   31.8334 H         3   G    0.0679
     85 H4'        37.9533   46.3432   33.8265 H         3   G    0.1174
     86 H3'        38.1717   44.3587   31.5361 H         3   G    0.0615
     87 H2'        37.2401   42.6997   32.9507 H         3   G    0.0972
     88 H1'        35.3685   44.3812   34.1202 H         3   G    0.2006
     89 H8         35.7180   44.9641   30.3931 H         3   G    0.1640
     90 H1         32.0423   39.9891   32.0101 H         3   G    0.3424
     91 H21        32.2015   39.5453   34.1553 H         3   G    0.4364
     92 H22        33.2460   40.4634   35.2166 H         3   G    0.4364
     93 HO2'       38.3050   43.0390   34.9021 H         3   G    0.4186
     94 P          40.4600   43.3810   32.5280 P.3       4   G    1.1662
     95 OP1        41.8480   43.8330   32.7600 O.co2     4   G   -0.7760
     96 OP2        39.9960   43.0220   31.1530 O.co2     4   G   -0.7760
     97 O5'        40.1610   42.1490   33.4680 O.3       4   G   -0.4989
     98 C5'        40.0500   40.8700   32.9230 C.3       4   G    0.0558
     99 C4'        39.0140   40.1220   33.6760 C.3       4   G    0.1065
    100 O4'        37.7200   40.7170   33.4570 O.3       4   G   -0.3548
    101 C3'        38.8530   38.6910   33.2430 C.3       4   G    0.2022
    102 O3'        39.8370   37.9470   33.9240 O.3       4   G   -0.5246
    103 C2'        37.4350   38.3680   33.6920 C.3       4   G    0.0670
    104 O2'        37.3180   38.0360   35.0590 O.3       4   G   -0.6139
    105 C1'        36.7350   39.6960   33.4110 C.3       4   G    0.0191
    106 N9         36.1570   39.7030   32.0880 N.ar      4   G    0.0492
    107 C8         36.4830   40.5470   31.0540 C.ar      4   G    0.1374
    108 N7         35.8050   40.3170   29.9720 N.ar      4   G   -0.5709
    109 C5         34.9810   39.2460   30.3030 C.ar      4   G    0.1744
    110 C6         34.0380   38.5600   29.5250 C.2       4   G    0.4770
    111 O6         33.7720   38.7080   28.3280 O.2       4   G   -0.5597
    112 N1         33.3870   37.5830   30.2690 N.am      4   G   -0.4787
    113 C2         33.6600   37.2840   31.5750 C.2       4   G    0.7657
    114 N2         32.9290   36.2820   32.1180 N.pl3     4   G   -0.9672
    115 N3         34.5740   37.9030   32.3000 N.2       4   G   -0.6323
    116 C4         35.1870   38.8770   31.6020 C.ar      4   G    0.1222
    117 H5'        39.7613   40.9418   31.8744 H         4   G    0.0679
    118 H5''       41.0062   40.3532   33.0046 H         4   G    0.0679
    119 H4'        39.2493   40.1524   34.7399 H         4   G    0.1174
    120 H3'        38.9583   38.5905   32.1628 H         4   G    0.0615
    121 H2'        37.0117   37.5776   33.0722 H         4   G    0.0972
    122 H1'        35.9648   39.8816   34.1596 H         4   G    0.2006
    123 H8         37.2289   41.3240   31.1339 H         4   G    0.1640
    124 H1         32.6582   37.0547   29.8109 H         4   G    0.3424
    125 H21        32.2314   35.8076   31.5627 H         4   G    0.4364
    126 H22        33.0813   36.0089   33.0784 H         4   G    0.4364
    127 HO2'       37.7239   38.7243   35.5911 H         4   G    0.4186
    128 P          40.6520   36.8180   33.1410 P.3       5   G    1.1662
    129 OP1        41.7240   36.3250   34.0500 O.co2     5   G   -0.7760
    130 OP2        41.0080   37.4020   31.8220 O.co2     5   G   -0.7760
    131 O5'        39.5800   35.6590   32.9600 O.3       5   G   -0.4989
    132 C5'        38.9890   35.0520   34.0920 C.3       5   G    0.0558
    133 C4'        37.8010   34.2260   33.6700 C.3       5   G    0.1065
    134 O4'        36.8300   35.0920   33.0330 O.3       5   G   -0.3548
    135 C3'        38.0500   33.1510   32.6220 C.3       5   G    0.2022
    136 O3'        38.5110   31.9500   33.2270 O.3       5   G   -0.5246
    137 C2'        36.6580   32.9360   32.0370 C.3       5   G    0.0670
    138 O2'        35.8590   32.0910   32.8490 O.3       5   G   -0.6139
    139 C1'        36.0960   34.3540   32.0680 C.3       5   G    0.0191
    140 N9         36.1470   35.0490   30.7800 N.ar      5   G    0.0492
    141 C8         36.9820   36.0670   30.3980 C.ar      5   G    0.1374
    142 N7         36.7020   36.5390   29.2070 N.ar      5   G   -0.5709
    143 C5         35.6300   35.7730   28.7780 C.ar      5   G    0.1744
    144 C6         34.8530   35.8340   27.5680 C.2       5   G    0.4770
    145 O6         34.9700   36.6140   26.6000 O.2       5   G   -0.5597
    146 N1         33.8590   34.8560   27.5560 N.am      5   G   -0.4787
    147 C2         33.6340   33.9430   28.5620 C.2       5   G    0.7657
    148 N2         32.6220   33.0680   28.3600 N.pl3     5   G   -0.9672
    149 N3         34.3390   33.8850   29.6800 N.2       5   G   -0.6323
    150 C4         35.3010   34.8210   29.7240 C.ar      5   G    0.1222
    151 H5'        38.6626   35.8253   34.7874 H         5   G    0.0679
    152 H5''       39.7208   34.4098   34.5820 H         5   G    0.0679
    153 H4'        37.3505   33.7697   34.5514 H         5   G    0.1174
    154 H3'        38.7469   33.4995   31.8598 H         5   G    0.0615
    155 H2'        36.7155   32.5590   31.0159 H         5   G    0.0972
    156 H1'        35.0561   34.3047   32.3911 H         5   G    0.2006
    157 H8         37.7865   36.4412   31.0137 H         5   G    0.1640
    158 H1         33.2570   34.8140   26.7461 H         5   G    0.3424
    159 H21        32.0814   33.1091   27.5079 H         5   G    0.4364
    160 H22        32.4072   32.3737   29.0613 H         5   G    0.4364
    161 HO2'       35.8642   31.2016   32.4876 H         5   G    0.4186
    162 P          39.3980   30.9180   32.3730 P.3       6   U    1.1662
    163 OP1        40.6620   30.6950   33.1250 O.co2     6   U   -0.7760
    164 OP2        39.4560   31.4440   30.9850 O.co2     6   U   -0.7760
    165 O5'        38.5720   29.5570   32.4370 O.3       6   U   -0.4989
    166 C5'        38.5130   28.8250   33.6530 C.3       6   U    0.0558
    167 C4'        37.4160   27.7970   33.6020 C.3       6   U    0.1065
    168 O4'        36.1450   28.4550   33.4130 O.3       6   U   -0.3548
    169 C3'        37.4900   26.8200   32.4490 C.3       6   U    0.2022
    170 O3'        38.3860   25.7770   32.7680 O.3       6   U   -0.5246
    171 C2'        36.0470   26.3450   32.3380 C.3       6   U    0.0670
    172 O2'        35.6490   25.4000   33.3070 O.3       6   U   -0.6139
    173 C1'        35.3050   27.6430   32.6150 C.3       6   U    0.0674
    174 N1         35.0960   28.3390   31.3550 N.am      6   U    0.0418
    175 C2         34.0490   27.9210   30.5770 C.2       6   U    0.4687
    176 O2         33.2980   27.0170   30.9070 O.2       6   U   -0.5477
    177 N3         33.9090   28.5990   29.4030 N.am      6   U   -0.3549
    178 C4         34.6970   29.6290   28.9550 C.2       6   U    0.5952
    179 O4         34.4350   30.1540   27.8780 O.2       6   U   -0.5761
    180 C5         35.7660   30.0000   29.8350 C.2       6   U   -0.3635
    181 C6         35.9210   29.3530   30.9760 C.2       6   U   -0.1126
    182 H5'        39.4667   28.3226   33.8147 H         6   U    0.0679
    183 H5''       38.3240   29.5122   34.4777 H         6   U    0.0679
    184 H4'        37.3981   27.2438   34.5410 H         6   U    0.1174
    185 H3'        37.7995   27.3267   31.5349 H         6   U    0.0615
    186 H2'        35.8338   25.9830   31.3322 H         6   U    0.0972
    187 H1'        34.3566   27.4510   33.1168 H         6   U    0.1824
    188 H3         33.1486   28.3146   28.8022 H         6   U    0.3154
    189 H5         36.4387   30.8014   29.5674 H         6   U    0.1811
    190 H6         36.7307   29.6386   31.6312 H         6   U    0.2188
    191 HO2'       36.1059   24.5701   33.1518 H         6   U    0.4186
    192 P          39.5410   25.3920   31.7310 P.3       7   C    1.1662
    193 OP1        40.3310   24.2540   32.3050 O.co2     7   C   -0.7760
    194 OP2        40.2260   26.6570   31.3380 O.co2     7   C   -0.7760
    195 O5'        38.7240   24.8430   30.4850 O.3       7   C   -0.4989
    196 C5'        37.7400   23.8410   30.6690 C.3       7   C    0.0558
    197 C4'        36.7250   23.9060   29.5570 C.3       7   C    0.1065
    198 O4'        36.1620   25.2430   29.5320 O.3       7   C   -0.3548
    199 C3'        37.2680   23.7380   28.1460 C.3       7   C    0.2022
    200 O3'        37.4040   22.3680   27.8180 O.3       7   C   -0.5246
    201 C2'        36.1830   24.4020   27.3130 C.3       7   C    0.0670
    202 O2'        35.0270   23.6150   27.1400 O.3       7   C   -0.6139
    203 C1'        35.8330   25.5900   28.1990 C.3       7   C    0.0066
    204 N1         36.6150   26.7470   27.7920 N.am      7   C   -0.0484
    205 C2         36.2710   27.3500   26.6140 C.2       7   C    0.7538
    206 O2         35.3140   26.8820   25.9720 O.2       7   C   -0.6252
    207 N3         36.9720   28.4220   26.1850 N.2       7   C   -0.7584
    208 C4         37.9890   28.8830   26.9070 C.2       7   C    0.8185
    209 N4         38.6460   29.9540   26.4390 N.pl3     7   C   -0.9530
    210 C5         38.3710   28.2740   28.1320 C.2       7   C   -0.5215
    211 C6         37.6590   27.2190   28.5360 C.2       7   C    0.0053
    212 H5'        38.2175   22.8612   30.6651 H         7   C    0.0679
    213 H5''       37.2399   23.9961   31.6250 H         7   C    0.0679
    214 H4'        35.9348   23.1770   29.7367 H         7   C    0.1174
    215 H3'        38.2181   24.2599   28.0318 H         7   C    0.0615
    216 H2'        36.5766   24.7340   26.3523 H         7   C    0.0972
    217 H1'        34.7687   25.8126   28.1225 H         7   C    0.2029
    218 H5         39.2017   28.6482   28.7119 H         7   C    0.1928
    219 H6         37.9125   26.7312   29.4656 H         7   C    0.1958
    220 H41        38.3634   30.3787   25.5673 H         7   C    0.4234
    221 H42        39.4235   30.3361   26.9582 H         7   C    0.4234
    222 HO2'       35.2331   22.8611   26.5825 H         7   C    0.4186
    223 P          38.8030   21.8160   27.2640 P.3       8   G    1.1662
    224 OP1        38.5210   21.0380   26.0190 O.co2     8   G   -0.7760
    225 OP2        39.5020   21.1640   28.4050 O.co2     8   G   -0.7760
    226 O5'        39.6110   23.1220   26.8610 O.3       8   G   -0.4989
    227 C5'        40.2720   23.1640   25.6190 C.3       8   G    0.0558
    228 C4'        39.2500   23.1410   24.5080 C.3       8   G    0.1065
    229 O4'        38.3770   24.2840   24.6380 O.3       8   G   -0.3548
    230 C3'        39.7860   23.2500   23.1090 C.3       8   G    0.2022
    231 O3'        39.9790   22.1360   22.3070 O.3       8   G   -0.5246
    232 C2'        39.6820   24.6800   22.6470 C.3       8   G    0.0670
    233 O2'        39.1290   24.7000   21.3490 O.3       8   G   -0.6139
    234 C1'        38.7220   25.2810   23.6790 C.3       8   G    0.0191
    235 N9         39.5150   26.2590   24.4030 N.ar      8   G    0.0492
    236 C8         40.0700   26.0760   25.6490 C.ar      8   G    0.1374
    237 N7         40.8230   27.0640   26.0320 N.ar      8   G   -0.5709
    238 C5         40.7540   27.9720   24.9820 C.ar      8   G    0.1744
    239 C6         41.3790   29.2240   24.8180 C.2       8   G    0.4770
    240 O6         42.1860   29.7920   25.5700 O.2       8   G   -0.5597
    241 N1         40.9990   29.8280   23.6220 N.am      8   G   -0.4787
    242 C2         40.1470   29.2910   22.7000 C.2       8   G    0.7657
    243 N2         39.8980   30.0620   21.6220 N.pl3     8   G   -0.9672
    244 N3         39.5800   28.1020   22.8240 N.2       8   G   -0.6323
    245 C4         39.9240   27.5010   23.9870 C.ar      8   G    0.1222
    246 H5'        40.9289   22.2991   25.5270 H         8   G    0.0679
    247 H5''       40.8622   24.0779   25.5516 H         8   G    0.0679
    248 H4'        38.6567   22.2303   24.5906 H         8   G    0.1174
    249 H3'        40.8294   23.3266   23.4147 H         8   G    0.0615
    250 H2'        40.6522   25.1762   22.6721 H         8   G    0.0972
    251 H1'        37.8429   25.7266   23.2135 H         8   G    0.2006
    252 H8         39.8966   25.1961   26.2508 H         8   G    0.1640
    253 H1         41.3858   30.7389   23.4199 H         8   G    0.3424
    254 H21        40.3342   30.9691   21.5383 H         8   G    0.4364
    255 H22        39.2753   29.7324   20.8983 H         8   G    0.4364
    256 HO2'       39.7646   25.0761   20.7357 H         8   G    0.4186
    257 P          41.3850   21.4100   22.3890 P.3       9   C    1.1662
    258 OP1        41.4520   20.3520   21.3500 O.co2     9   C   -0.7760
    259 OP2        41.6230   21.0660   23.8190 O.co2     9   C   -0.7760
    260 O5'        42.4040   22.5750   22.0530 O.3       9   C   -0.4989
    261 C5'        43.7560   22.4240   22.4110 C.3       9   C    0.0558
    262 C4'        44.6060   23.2140   21.4740 C.3       9   C    0.1065
    263 O4'        44.3410   22.7740   20.1190 O.3       9   C   -0.3548
    264 C3'        44.2230   24.6770   21.4090 C.3       9   C    0.2022
    265 O3'        44.7850   25.3910   22.4830 O.3       9   C   -0.5246
    266 C2'        44.8180   25.0950   20.0790 C.3       9   C    0.0670
    267 O2'        46.2210   25.2510   20.1310 O.3       9   C   -0.6139
    268 C1'        44.5040   23.8680   19.2340 C.3       9   C    0.0066
    269 N1         43.2780   24.0300   18.4440 N.am      9   C   -0.0484
    270 C2         43.2670   25.0150   17.4530 C.2       9   C    0.7538
    271 O2         44.2320   25.7830   17.3760 O.2       9   C   -0.6252
    272 N3         42.2070   25.1140   16.6260 N.2       9   C   -0.7584
    273 C4         41.1700   24.2970   16.7880 C.2       9   C    0.8185
    274 N4         40.1630   24.4090   15.9360 N.pl3     9   C   -0.9530
    275 C5         41.1240   23.3220   17.8360 C.2       9   C   -0.5215
    276 C6         42.1920   23.2250   18.6360 C.2       9   C    0.0053
    277 H5'        43.9052   22.7839   23.4290 H         9   C    0.0679
    278 H5''       44.0323   21.3712   22.3532 H         9   C    0.0679
    279 H4'        45.6620   23.1002   21.7190 H         9   C    0.1174
    280 H3'        43.1390   24.7903   21.3976 H         9   C    0.0615
    281 H2'        44.3307   25.9871   19.6855 H         9   C    0.0972
    282 H1'        45.3404   23.6681   18.5643 H         9   C    0.2029
    283 H5         40.2600   22.6891   17.9752 H         9   C    0.1928
    284 H6         42.1951   22.5041   19.4402 H         9   C    0.1958
    285 H41        40.2003   25.0972   15.1977 H         9   C    0.4234
    286 H42        39.3574   23.8062   16.0243 H         9   C    0.4234
    287 HO2'       46.4383   26.0215   20.6608 H         9   C    0.4186
    288 P          43.8730   26.4170   23.3060 P.3      10   A    1.1662
    289 OP1        44.7090   26.9220   24.4210 O.co2    10   A   -0.7760
    290 OP2        42.6060   25.7040   23.5990 O.co2    10   A   -0.7760
    291 O5'        43.6460   27.6200   22.2920 O.3      10   A   -0.4989
    292 C5'        44.7560   28.3220   21.7760 C.3      10   A    0.0558
    293 C4'        44.3870   28.9530   20.4680 C.3      10   A    0.1065
    294 O4'        43.8670   27.9170   19.6010 O.3      10   A   -0.3548
    295 C3'        43.2700   29.9770   20.5420 C.3      10   A    0.2022
    296 O3'        43.8060   31.2570   20.8660 O.3      10   A   -0.5246
    297 C2'        42.6740   29.9260   19.1340 C.3      10   A    0.0670
    298 O2'        43.3670   30.7040   18.1730 O.3      10   A   -0.6139
    299 C1'        42.8300   28.4440   18.7920 C.3      10   A    0.0394
    300 N9         41.6270   27.6310   18.9810 N.ar     10   A   -0.0251
    301 C8         41.3620   26.7160   19.9690 C.ar     10   A    0.2006
    302 N7         40.2000   26.1170   19.8420 N.ar     10   A   -0.6073
    303 C5         39.6550   26.6790   18.6930 C.ar     10   A    0.0515
    304 C6         38.4210   26.4670   18.0040 C.ar     10   A    0.7009
    305 N6         37.4910   25.5810   18.3810 N.pl3    10   A   -0.9019
    306 N1         38.1890   27.2100   16.9020 N.ar     10   A   -0.7615
    307 C2         39.1300   28.0870   16.5200 C.ar     10   A    0.5875
    308 N3         40.3170   28.3660   17.0680 N.ar     10   A   -0.6997
    309 C4         40.5200   27.6220   18.1620 C.ar     10   A    0.3053
    310 H5'        45.0546   29.0975   22.4814 H        10   A    0.0679
    311 H5''       45.5847   27.6303   21.6245 H        10   A    0.0679
    312 H4'        45.2699   29.4035   20.0146 H        10   A    0.1174
    313 H3'        42.5270   29.6772   21.2810 H        10   A    0.0615
    314 H2'        41.6197   30.2017   19.1574 H        10   A    0.0972
    315 H1'        43.1361   28.3642   17.7489 H        10   A    0.2007
    316 H8         42.0469   26.5074   20.7776 H        10   A    0.1553
    317 H2         38.8916   28.6551   15.6330 H        10   A    0.0473
    318 H61        37.6397   25.0110   19.2014 H        10   A    0.4115
    319 H62        36.6406   25.4826   17.8450 H        10   A    0.4115
    320 HO2'       43.2709   31.6353   18.3851 H        10   A    0.4186
    321 P          43.2500   32.0550   22.1510 P.3      11   G    1.1662
    322 OP1        44.1860   33.1710   22.4820 O.co2    11   G   -0.7760
    323 OP2        42.8960   31.0550   23.1850 O.co2    11   G   -0.7760
    324 O5'        41.9210   32.7390   21.6300 O.3      11   G   -0.4989
    325 C5'        42.0080   33.8600   20.7680 C.3      11   G    0.0558
    326 C4'        40.7510   34.6610   20.8590 C.3      11   G    0.1065
    327 O4'        39.6780   33.7170   20.6870 O.3      11   G   -0.3548
    328 C3'        40.4800   35.3040   22.2120 C.3      11   G    0.2022
    329 O3'        40.9370   36.6550   22.2710 O.3      11   G   -0.5246
    330 C2'        38.9530   35.3580   22.2490 C.3      11   G    0.0670
    331 O2'        38.3820   36.4770   21.5940 O.3      11   G   -0.6139
    332 C1'        38.5770   34.0990   21.4760 C.3      11   G    0.0191
    333 N9         38.2130   32.9690   22.3050 N.ar     11   G    0.0492
    334 C8         38.8600   32.4790   23.4070 C.ar     11   G    0.1374
    335 N7         38.2740   31.4310   23.9150 N.ar     11   G   -0.5709
    336 C5         37.1760   31.2290   23.0930 C.ar     11   G    0.1744
    337 C6         36.1560   30.2450   23.1350 C.2      11   G    0.4770
    338 O6         35.9960   29.3280   23.9540 O.2      11   G   -0.5597
    339 N1         35.2500   30.4070   22.0860 N.am     11   G   -0.4787
    340 C2         35.3100   31.3960   21.1300 C.2      11   G    0.7657
    341 N2         34.3580   31.3690   20.1710 N.pl3    11   G   -0.9672
    342 N3         36.2360   32.3310   21.1070 N.2      11   G   -0.6323
    343 C4         37.1330   32.1790   22.1010 C.ar     11   G    0.1222
    344 H5'        42.8549   34.4795   21.0632 H        11   G    0.0679
    345 H5''       42.1477   33.5191   19.7422 H        11   G    0.0679
    346 H4'        40.7235   35.4129   20.0704 H        11   G    0.1174
    347 H3'        40.8821   34.7064   23.0301 H        11   G    0.0615
    348 H2'        38.5948   35.2949   23.2765 H        11   G    0.0972
    349 H1'        37.7403   34.3316   20.8172 H        11   G    0.2006
    350 H8         39.7610   32.9146   23.8130 H        11   G    0.1640
    351 H1         34.4892   29.7457   22.0230 H        11   G    0.3424
    352 H21        33.6487   30.6501   20.1836 H        11   G    0.4364
    353 H22        34.3559   32.0677   19.4417 H        11   G    0.4364
    354 HO2'       38.6108   37.2784   22.0705 H        11   G    0.4186
    355 P          42.3200   37.0920   21.5730 P.3      12   U    1.1662
    356 OP1        42.4000   36.6160   20.1560 O.co2    12   U   -0.7760
    357 OP2        43.3890   36.7240   22.5410 O.co2    12   U   -0.7760
    358 O5'        42.1940   38.6800   21.5000 O.3      12   U   -0.4989
    359 C5'        40.9200   39.3250   21.6140 C.3      12   U    0.0558
    360 C4'        40.7760   40.3800   20.5450 C.3      12   U    0.1065
    361 O4'        42.0410   41.0580   20.4740 O.3      12   U   -0.3548
    362 C3'        40.5210   39.8870   19.1260 C.3      12   U    0.2022
    363 O3'        39.1110   39.7880   18.8800 O.3      12   U   -0.5246
    364 C2'        41.2200   40.9050   18.2260 C.3      12   U    0.0670
    365 O2'        40.4110   41.9450   17.7250 O.3      12   U   -0.6139
    366 C1'        42.2880   41.4820   19.1530 C.3      12   U    0.0674
    367 N1         43.6760   41.1470   18.8170 N.am     12   U    0.0418
    368 C2         44.3390   42.0180   17.9760 C.2      12   U    0.4687
    369 O2         43.7910   42.9910   17.4720 O.2      12   U   -0.5477
    370 N3         45.6590   41.7070   17.7470 N.am     12   U   -0.3549
    371 C4         46.3570   40.6230   18.2550 C.2      12   U    0.5952
    372 O4         47.5480   40.4850   17.9700 O.2      12   U   -0.5761
    373 C5         45.5840   39.7500   19.0940 C.2      12   U   -0.3635
    374 C6         44.3000   40.0340   19.3370 C.2      12   U   -0.1126
    375 H5'        40.1291   38.5840   21.4980 H        12   U    0.0679
    376 H5''       40.8374   39.7913   22.5957 H        12   U    0.0679
    377 H4'        39.9977   41.0872   20.8317 H        12   U    0.1174
    378 H3'        40.9822   38.9083   18.9934 H        12   U    0.0615
    379 H2'        41.7006   40.3867   17.3962 H        12   U    0.0972
    380 H1'        42.1946   42.5678   19.1306 H        12   U    0.1824
    381 H3         46.1735   42.3344   17.1456 H        12   U    0.3154
    382 H5         46.0370   38.8698   19.5258 H        12   U    0.1811
    383 H6         43.7302   39.3652   19.9650 H        12   U    0.2188
    384 HO2'       39.9594   42.3786   18.4527 H        12   U    0.4186
    385 P          38.1050   40.9760   19.3500 P.3      13   A    1.1662
    386 OP1        38.8530   42.2230   19.6820 O.co2    13   A   -0.7760
    387 OP2        37.1860   40.3760   20.3640 O.co2    13   A   -0.7760
    388 O5'        37.2000   41.2760   18.0760 O.3      13   A   -0.4989
    389 C5'        37.7250   41.9680   16.9560 C.3      13   A    0.0558
    390 C4'        37.2680   41.2990   15.6840 C.3      13   A    0.1065
    391 O4'        38.1270   40.1950   15.3090 O.3      13   A   -0.3548
    392 C3'        35.9060   40.6640   15.8110 C.3      13   A    0.2022
    393 O3'        34.9400   41.6720   15.6940 O.3      13   A   -0.5246
    394 C2'        35.8860   39.6480   14.6790 C.3      13   A    0.0670
    395 O2'        35.4770   40.1990   13.4450 O.3      13   A   -0.6139
    396 C1'        37.3550   39.2060   14.6420 C.3      13   A    0.0394
    397 N9         37.6160   37.9270   15.2960 N.ar     13   A   -0.0251
    398 C8         38.4790   37.6780   16.3400 C.ar     13   A    0.2006
    399 N7         38.4990   36.4240   16.7170 N.ar     13   A   -0.6073
    400 C5         37.5890   35.8070   15.8680 C.ar     13   A    0.0515
    401 C6         37.1440   34.4830   15.7650 C.ar     13   A    0.7009
    402 N6         37.5600   33.4950   16.5610 N.pl3    13   A   -0.9019
    403 N1         36.2360   34.2000   14.8060 N.ar     13   A   -0.7615
    404 C2         35.8020   35.1940   14.0160 C.ar     13   A    0.5875
    405 N3         36.1360   36.4800   14.0240 N.ar     13   A   -0.6997
    406 C4         37.0440   36.7220   14.9850 C.ar     13   A    0.3053
    407 H5'        37.3722   42.9992   16.9696 H        13   A    0.0679
    408 H5''       38.8140   41.9567   17.0006 H        13   A    0.0679
    409 H4'        37.2502   42.0320   14.8775 H        13   A    0.1174
    410 H3'        35.8120   40.1601   16.7730 H        13   A    0.0615
    411 H2'        35.2475   38.8050   14.9431 H        13   A    0.0972
    412 H1'        37.6798   39.1449   13.6033 H        13   A    0.2007
    413 H8         39.0822   38.4444   16.8039 H        13   A    0.1553
    414 H2         35.0782   34.9081   13.2671 H        13   A    0.0473
    415 H61        37.2454   32.5358   16.5936 H        13   A    0.4115
    416 H62        38.2866   33.7396   17.2185 H        13   A    0.4115
    417 HO2'       34.5562   40.4644   13.5020 H        13   A    0.4186
    418 P          33.9730   41.9520   16.9270 P.3      14   A    1.1662
    419 OP1        33.6350   43.4020   16.9330 O.co2    14   A   -0.7760
    420 OP2        34.6070   41.3360   18.1230 O.co2    14   A   -0.7760
    421 O5'        32.7050   41.0930   16.5250 O.3      14   A   -0.4989
    422 C5'        32.3730   40.9480   15.1590 C.3      14   A    0.0558
    423 C4'        32.0790   39.5150   14.8540 C.3      14   A    0.1065
    424 O4'        33.2960   38.7410   14.8110 O.3      14   A   -0.3548
    425 C3'        31.3060   38.8130   15.9400 C.3      14   A    0.2022
    426 O3'        29.9480   39.1520   15.8870 O.3      14   A   -0.5246
    427 C2'        31.5370   37.3570   15.6000 C.3      14   A    0.0670
    428 O2'        30.6920   36.9350   14.5530 O.3      14   A   -0.6139
    429 C1'        32.9980   37.3970   15.1530 C.3      14   A    0.0394
    430 N9         33.8990   36.9850   16.2230 N.ar     14   A   -0.0251
    431 C8         34.8510   37.7290   16.8680 C.ar     14   A    0.2006
    432 N7         35.5200   37.0610   17.7750 N.ar     14   A   -0.6073
    433 C5         34.9580   35.7910   17.7370 C.ar     14   A    0.0515
    434 C6         35.2170   34.6130   18.4670 C.ar     14   A    0.7009
    435 N6         36.1390   34.5160   19.4260 N.pl3    14   A   -0.9019
    436 N1         34.4770   33.5230   18.1740 N.ar     14   A   -0.7615
    437 C2         33.5420   33.6220   17.2250 C.ar     14   A    0.5875
    438 N3         33.2020   34.6680   16.4820 N.ar     14   A   -0.6997
    439 C4         33.9590   35.7350   16.7880 C.ar     14   A    0.3053
    440 H5'        31.4939   41.5523   14.9352 H        14   A    0.0679
    441 H5''       33.2090   41.2843   14.5457 H        14   A    0.0679
    442 H4'        31.5495   39.4345   13.9047 H        14   A    0.1174
    443 H3'        31.7218   39.0484   16.9197 H        14   A    0.0615
    444 H2'        31.4144   36.7257   16.4801 H        14   A    0.0972
    445 H1'        33.1370   36.7542   14.2838 H        14   A    0.2007
    446 H8         35.0335   38.7707   16.6490 H        14   A    0.1553
    447 H2         32.9808   32.7191   17.0345 H        14   A    0.0473
    448 H61        36.2738   33.6526   19.9323 H        14   A    0.4115
    449 H62        36.7109   35.3180   19.6492 H        14   A    0.4115
    450 HO2'       30.8598   36.0099   14.3589 H        14   A    0.4186
    451 P          29.2250   39.6000   17.2300 P.3      15   C    1.1662
    452 OP1        27.9470   40.2860   16.8910 O.co2    15   C   -0.7760
    453 OP2        30.2720   40.2960   18.0360 O.co2    15   C   -0.7760
    454 O5'        28.8870   38.2170   17.9240 O.3      15   C   -0.4989
    455 C5'        28.1470   37.2380   17.2250 C.3      15   C    0.0558
    456 C4'        28.3630   35.9040   17.8620 C.3      15   C    0.1065
    457 O4'        29.7350   35.4900   17.6620 O.3      15   C   -0.3548
    458 C3'        28.2430   35.9230   19.3650 C.3      15   C    0.2022
    459 O3'        26.9000   35.8970   19.7740 O.3      15   C   -0.5246
    460 C2'        28.9870   34.6610   19.7470 C.3      15   C    0.0670
    461 O2'        28.2240   33.5010   19.4940 O.3      15   C   -0.6139
    462 C1'        30.1680   34.7390   18.7860 C.3      15   C    0.0066
    463 N1         31.3150   35.4220   19.3900 N.am     15   C   -0.0484
    464 C2         32.0990   34.7080   20.2860 C.2      15   C    0.7538
    465 O2         31.7710   33.5490   20.5590 O.2      15   C   -0.6252
    466 N3         33.1850   35.2860   20.8350 N.2      15   C   -0.7584
    467 C4         33.4900   36.5480   20.5280 C.2      15   C    0.8185
    468 N4         34.5910   37.0860   21.0940 N.pl3    15   C   -0.9530
    469 C5         32.6890   37.3180   19.6260 C.2      15   C   -0.5215
    470 C6         31.6210   36.7200   19.0850 C.2      15   C    0.0053
    471 H5'        27.0871   37.4900   17.2596 H        15   C    0.0679
    472 H5''       28.4789   37.2035   16.1873 H        15   C    0.0679
    473 H4'        27.6804   35.1677   17.4377 H        15   C    0.1174
    474 H3'        28.7469   36.7986   19.7743 H        15   C    0.0615
    475 H2'        29.3190   34.6969   20.7846 H        15   C    0.0972
    476 H1'        30.4572   33.7360   18.4723 H        15   C    0.2029
    477 H5         32.9369   38.3425   19.3909 H        15   C    0.1928
    478 H6         30.9929   37.2690   18.3991 H        15   C    0.1958
    479 H41        35.1526   36.5363   21.7284 H        15   C    0.4234
    480 H42        34.8532   38.0383   20.8831 H        15   C    0.4234
    481 HO2'       28.0625   33.0374   20.3190 H        15   C    0.4186
    482 P          26.5130   36.5420   21.1790 P.3      16   C    1.1662
    483 OP1        25.0380   36.7300   21.2070 O.co2    16   C   -0.7760
    484 OP2        27.4260   37.7080   21.3640 O.co2    16   C   -0.7760
    485 O5'        26.8840   35.3850   22.2040 O.3      16   C   -0.4989
    486 C5'        26.4700   34.0450   21.9500 C.3      16   C    0.0558
    487 C4'        27.0140   33.1250   23.0130 C.3      16   C    0.1065
    488 O4'        28.4480   32.9400   22.8440 O.3      16   C   -0.3548
    489 C3'        26.9370   33.6980   24.4050 C.3      16   C    0.2022
    490 O3'        25.6670   33.5770   24.9600 O.3      16   C   -0.5246
    491 C2'        27.9430   32.8500   25.1510 C.3      16   C    0.0670
    492 O2'        27.4220   31.5610   25.4110 O.3      16   C   -0.6139
    493 C1'        29.0680   32.8010   24.1230 C.3      16   C    0.0066
    494 N1         30.0490   33.8910   24.3010 N.am     16   C   -0.0484
    495 C2         30.9930   33.7790   25.3220 C.2      16   C    0.7538
    496 O2         30.9320   32.8040   26.0890 O.2      16   C   -0.6252
    497 N3         31.9530   34.7380   25.4470 N.2      16   C   -0.7584
    498 C4         31.9660   35.7830   24.6140 C.2      16   C    0.8185
    499 N4         32.9400   36.6990   24.7540 N.pl3    16   C   -0.9530
    500 C5         30.9890   35.9400   23.5960 C.2      16   C   -0.5215
    501 C6         30.0560   34.9830   23.4780 C.2      16   C    0.0053
    502 H5'        25.3811   33.9971   21.9546 H        16   C    0.0679
    503 H5''       26.8416   33.7304   20.9748 H        16   C    0.0679
    504 H4'        26.5038   32.1626   22.9740 H        16   C    0.1174
    505 H3'        27.2505   34.7419   24.4021 H        16   C    0.0615
    506 H2'        28.2678   33.3381   26.0699 H        16   C    0.0972
    507 H1'        29.5757   31.8382   24.1812 H        16   C    0.2029
    508 H5         30.9965   36.7983   22.9405 H        16   C    0.1928
    509 H6         29.2950   35.0771   22.7175 H        16   C    0.1958
    510 H41        33.6372   36.5885   25.4764 H        16   C    0.4234
    511 H42        32.9746   37.4977   24.1368 H        16   C    0.4234
    512 HO2'       27.7459   31.2501   26.2595 H        16   C    0.4186
    513 P          25.2760   34.5510   26.1410 P.3      17   C    1.1662
    514 OP1        23.8630   34.2810   26.4960 O.co2    17   C   -0.7760
    515 OP2        25.7090   35.9070   25.7020 O.co2    17   C   -0.7760
    516 O5'        26.2260   34.0850   27.3270 O.3      17   C   -0.4989
    517 C5'        26.0620   32.8060   27.9230 C.3      17   C    0.0558
    518 C4'        26.8910   32.7080   29.1830 C.3      17   C    0.1065
    519 O4'        28.3020   32.6960   28.8380 O.3      17   C   -0.3548
    520 C3'        26.7780   33.8820   30.1320 C.3      17   C    0.2022
    521 O3'        25.6610   33.7640   30.9750 O.3      17   C   -0.5246
    522 C2'        28.0600   33.7540   30.9300 C.3      17   C    0.0670
    523 O2'        27.9590   32.7020   31.8720 O.3      17   C   -0.6139
    524 C1'        29.0410   33.4100   29.8150 C.3      17   C    0.0066
    525 N1         29.5750   34.6210   29.1750 N.am     17   C   -0.0484
    526 C2         30.6360   35.2840   29.7860 C.2      17   C    0.7538
    527 O2         31.0490   34.8690   30.8680 O.2      17   C   -0.6252
    528 N3         31.1790   36.3650   29.1850 N.2      17   C   -0.7584
    529 C4         30.6850   36.7970   28.0250 C.2      17   C    0.8185
    530 N4         31.2620   37.8530   27.4570 N.pl3    17   C   -0.9530
    531 C5         29.5750   36.1600   27.3920 C.2      17   C   -0.5215
    532 C6         29.0550   35.0870   27.9980 C.2      17   C    0.0053
    533 H5'        26.3831   32.0373   27.2200 H        17   C    0.0679
    534 H5''       25.0111   32.6542   28.1692 H        17   C    0.0679
    535 H4'        26.6393   31.7888   29.7119 H        17   C    0.1174
    536 H3'        26.7536   34.8239   29.5840 H        17   C    0.0615
    537 H2'        28.3224   34.6953   31.4130 H        17   C    0.0972
    538 H1'        29.8538   32.7947   30.2009 H        17   C    0.2029
    539 H5         29.1714   36.5298   26.4610 H        17   C    0.1928
    540 H6         28.2119   34.5806   27.5517 H        17   C    0.1958
    541 H41        32.0479   38.3013   27.9058 H        17   C    0.4234
    542 H42        30.9140   38.2062   26.5771 H        17   C    0.4234
    543 HO2'       28.8343   32.4759   32.1949 H        17   C    0.4186
    544 P          25.0610   35.0820   31.6470 P.3      18   C    1.1662
    545 OP1        23.8220   34.6530   32.3460 O.co2    18   C   -0.7760
    546 OP2        25.0170   36.1640   30.6220 O.co2    18   C   -0.7760
    547 O5'        26.1520   35.4920   32.7290 O.3      18   C   -0.4989
    548 C5'        26.3840   34.6740   33.8700 C.3      18   C    0.0558
    549 C4'        27.4810   35.2660   34.7040 C.3      18   C    0.1065
    550 O4'        28.6910   35.2850   33.9100 O.3      18   C   -0.3548
    551 C3'        27.3140   36.7300   35.0440 C.3      18   C    0.2022
    552 O3'        26.4800   36.9380   36.1450 O.3      18   C   -0.5246
    553 C2'        28.7300   37.1270   35.3850 C.3      18   C    0.0670
    554 O2'        29.1420   36.6520   36.6410 O.3      18   C   -0.6139
    555 C1'        29.4870   36.3960   34.2890 C.3      18   C    0.0066
    556 N1         29.6330   37.2740   33.1360 N.am     18   C   -0.0484
    557 C2         30.6000   38.2650   33.1870 C.2      18   C    0.7538
    558 O2         31.2460   38.4220   34.2390 O.2      18   C   -0.6252
    559 N3         30.7990   39.0430   32.1050 N.2      18   C   -0.7584
    560 C4         30.0440   38.8790   31.0220 C.2      18   C    0.8185
    561 N4         30.2730   39.6730   29.9830 N.pl3    18   C   -0.9530
    562 C5         29.0200   37.8970   30.9600 C.2      18   C   -0.5215
    563 C6         28.8510   37.1210   32.0290 C.2      18   C    0.0053
    564 H5'        25.4715   34.6128   34.4630 H        18   C    0.0679
    565 H5''       26.6738   33.6743   33.5465 H        18   C    0.0679
    566 H4'        27.6294   34.6790   35.6104 H        18   C    0.1174
    567 H3'        26.9556   37.2877   34.1788 H        18   C    0.0615
    568 H2'        28.8669   38.2056   35.3069 H        18   C    0.0972
    569 H1'        30.4620   36.0666   34.6482 H        18   C    0.2029
    570 H5         28.4029   37.7840   30.0809 H        18   C    0.1928
    571 H6         28.0844   36.3603   32.0193 H        18   C    0.1958
    572 H41        31.0013   40.3711   30.0317 H        18   C    0.4234
    573 H42        29.7189   39.5790   29.1438 H        18   C    0.4234
    574 HO2'       29.1384   37.3741   37.2736 H        18   C    0.4186
    575 P          25.5480   38.2240   36.1600 P.3      19   A    1.1662
    576 OP1        24.5590   37.9940   37.2410 O.co2    19   A   -0.7760
    577 OP2        25.1030   38.4250   34.7600 O.co2    19   A   -0.7760
    578 O5'        26.5260   39.4040   36.5660 O.3      19   A   -0.4989
    579 C5'        27.1760   39.3670   37.8140 C.3      19   A    0.0558
    580 C4'        28.3750   40.2630   37.7940 C.3      19   A    0.1065
    581 O4'        29.1980   39.8850   36.6670 O.3      19   A   -0.3548
    582 C3'        28.1020   41.7280   37.5300 C.3      19   A    0.2022
    583 O3'        27.7780   42.4040   38.7240 O.3      19   A   -0.5246
    584 C2'        29.4520   42.2100   37.0270 C.3      19   A    0.0670
    585 O2'        30.3790   42.4090   38.0680 O.3      19   A   -0.6139
    586 C1'        29.8970   41.0200   36.1860 C.3      19   A    0.0394
    587 N9         29.5760   41.2100   34.7740 N.ar     19   A   -0.0251
    588 C8         28.7020   40.5140   33.9800 C.ar     19   A    0.2006
    589 N7         28.7010   40.9020   32.7260 N.ar     19   A   -0.6073
    590 C5         29.6210   41.9430   32.7000 C.ar     19   A    0.0515
    591 C6         30.0900   42.7750   31.6630 C.ar     19   A    0.7009
    592 N6         29.6830   42.6800   30.3940 N.pl3    19   A   -0.9019
    593 N1         31.0070   43.7190   31.9830 N.ar     19   A   -0.7615
    594 C2         31.4170   43.8070   33.2550 C.ar     19   A    0.5875
    595 N3         31.0540   43.0800   34.3110 N.ar     19   A   -0.6997
    596 C4         30.1480   42.1520   33.9590 C.ar     19   A    0.3053
    597 H5'        27.4924   38.3457   38.0258 H        19   A    0.0679
    598 H5''       26.4877   39.7009   38.5904 H        19   A    0.0679
    599 H4'        28.9386   40.1508   38.7202 H        19   A    0.1174
    600 H3'        27.3263   41.8587   36.7755 H        19   A    0.0615
    601 H2'        29.3474   43.1067   36.4162 H        19   A    0.0972
    602 H1'        30.9701   40.8679   36.3022 H        19   A    0.2007
    603 H8         28.0721   39.7194   34.3519 H        19   A    0.1553
    604 H2         32.1467   44.5781   33.4533 H        19   A    0.0473
    605 HO2'       30.3602   43.3288   38.3423 H        19   A    0.4186
    606 H61        30.1724   43.0111   29.5749 H        19   A    0.4115
    607 H62        28.7925   42.2299   30.2374 H        19   A    0.4115
    608 P          27.0660   43.8320   38.6520 P.3      20   G    1.1662
    609 OP1        26.6850   44.1780   40.0490 O.co2    20   G   -0.7760
    610 OP2        26.0200   43.6950   37.5960 O.co2    20   G   -0.7760
    611 O5'        28.2070   44.8490   38.1920 O.3      20   G   -0.4989
    612 C5'        29.1710   45.3440   39.1120 C.3      20   G    0.0558
    613 C4'        29.9990   46.4140   38.4610 C.3      20   G    0.1065
    614 O4'        30.2410   45.9750   37.1010 O.3      20   G   -0.3548
    615 C3'        29.1970   47.7120   38.3450 C.3      20   G    0.2022
    616 O3'        29.8560   48.9490   38.6070 O.3      20   G   -0.5246
    617 C2'        28.6380   47.7510   36.9360 C.3      20   G    0.0670
    618 O2'        28.8760   49.0250   36.3970 O.3      20   G   -0.6139
    619 C1'        29.6000   46.8470   36.1920 C.3      20   G    0.0191
    620 N9         29.0980   46.1710   34.9880 N.ar     20   G    0.0492
    621 C8         28.3830   45.0050   34.8650 C.ar     20   G    0.1374
    622 N7         28.0980   44.7150   33.6190 N.ar     20   G   -0.5709
    623 C5         28.6650   45.7440   32.8820 C.ar     20   G    0.1744
    624 C6         28.6990   45.9650   31.4760 C.2      20   G    0.4770
    625 O6         28.2200   45.2560   30.5660 O.2      20   G   -0.5597
    626 N1         29.3720   47.1430   31.1630 N.am     20   G   -0.4787
    627 C2         29.9320   47.9990   32.0770 C.2      20   G    0.7657
    628 N2         30.5240   49.1180   31.5670 N.pl3    20   G   -0.9672
    629 N3         29.9130   47.7920   33.3820 N.2      20   G   -0.6323
    630 C4         29.2730   46.6550   33.7100 C.ar     20   G    0.1222
    631 H5'        28.6606   45.7607   39.9803 H        20   G    0.0679
    632 H5''       29.8197   44.5280   39.4306 H        20   G    0.0679
    633 H4'        30.9341   46.5729   38.9981 H        20   G    0.1174
    634 H3'        28.3530   47.6384   39.0308 H        20   G    0.0615
    635 H2'        27.5973   47.4339   36.8684 H        20   G    0.0972
    636 H1'        30.3884   47.5093   35.8344 H        20   G    0.2006
    637 H8         28.0874   44.3930   35.7044 H        20   G    0.1640
    638 H1         29.4544   47.3864   30.1862 H        20   G    0.3424
    639 H21        30.5338   49.2740   30.5692 H        20   G    0.4364
    640 H22        30.9523   49.7901   32.1874 H        20   G    0.4364
    641 HO2'       29.6990   49.3729   36.7481 H        20   G    0.4186
    642 P          30.8500   49.0890   39.8320 P.3      21   U    1.1662
    643 OP1        30.6350   47.8870   40.6610 O.co2    21   U   -0.7760
    644 OP2        30.6660   50.4450   40.4180 O.co2    21   U   -0.7760
    645 O5'        32.2810   48.9950   39.1510 O.3      21   U   -0.4989
    646 C5'        33.4050   48.5570   39.8950 C.3      21   U    0.0558
    647 C4'        34.5910   49.3430   39.4660 C.3      21   U    0.1065
    648 O4'        34.6490   49.2300   38.0320 O.3      21   U   -0.3548
    649 C3'        34.4320   50.8210   39.7610 C.3      21   U    0.2022
    650 O3'        34.9950   51.1090   41.0460 O.3      21   U   -0.5246
    651 C2'        35.0350   51.5420   38.5530 C.3      21   U    0.0670
    652 O2'        36.3520   52.0240   38.6590 O.3      21   U   -0.6139
    653 C1'        34.9650   50.4780   37.4610 C.3      21   U    0.0674
    654 N1         34.0000   50.7420   36.3950 N.am     21   U    0.0418
    655 C2         34.3940   51.5490   35.3480 C.2      21   U    0.4687
    656 O2         35.4630   52.1320   35.3150 O.2      21   U   -0.5477
    657 N3         33.4810   51.6560   34.3360 N.am     21   U   -0.3549
    658 C4         32.2410   51.0700   34.2720 C.2      21   U    0.5952
    659 O4         31.5870   51.1660   33.2350 O.2      21   U   -0.5761
    660 C5         31.8860   50.3020   35.4180 C.2      21   U   -0.3635
    661 C6         32.7570   50.1680   36.4180 C.2      21   U   -0.1126
    662 H5'        33.2254   48.7139   40.9586 H        21   U    0.0679
    663 H5''       33.5795   47.4979   39.7055 H        21   U    0.0679
    664 H4'        35.5005   48.9524   39.9225 H        21   U    0.1174
    665 H3'        33.3666   51.0487   39.7969 H        21   U    0.0615
    666 H2'        34.3810   52.3693   38.2774 H        21   U    0.0972
    667 H1'        35.9527   50.3984   37.0068 H        21   U    0.1824
    668 H3         33.7482   52.2294   33.5486 H        21   U    0.3154
    669 H5         30.9160   49.8307   35.4763 H        21   U    0.1811
    670 H6         32.4712   49.5838   37.2802 H        21   U    0.2188
    671 HO2'       36.9207   51.3300   39.0003 H        21   U    0.4186
    672 P          36.5710   50.8620   41.3330 P.3      22   U    1.1662
    673 OP1        37.0710   52.0420   42.0870 O.co2    22   U   -0.7760
    674 OP2        37.2830   50.4290   40.1110 O.co2    22   U   -0.7760
    675 O5'        36.6040   49.5980   42.2990 O.3      22   U   -0.4989
    676 C5'        37.4220   48.4710   41.9950 C.3      22   U    0.0558
    677 C4'        36.8830   47.2650   42.7090 C.3      22   U    0.1065
    678 O4'        36.9020   47.5610   44.1160 O.3      22   U   -0.3548
    679 C3'        35.4420   46.9650   42.3520 C.3      22   U    0.2022
    680 O3'        35.4430   45.9700   41.3380 O.3      22   U   -0.5246
    681 C2'        34.7390   46.6140   43.6650 C.3      22   U    0.0670
    682 O2'        34.5870   45.2350   43.9280 O.3      22   U   -0.6139
    683 C1'        35.6670   47.2390   44.7060 C.3      22   U    0.0674
    684 N1         35.2320   48.4000   45.4990 N.am     22   U    0.0418
    685 C2         34.6640   48.1380   46.7100 C.2      22   U    0.4687
    686 O2         34.3800   47.0170   47.0520 O.2      22   U   -0.5477
    687 N3         34.4400   49.2380   47.5060 N.am     22   U   -0.3549
    688 C4         34.7040   50.5640   47.1950 C.2      22   U    0.5952
    689 O4         34.5920   51.4310   48.0680 O.2      22   U   -0.5761
    690 C5         35.2160   50.7630   45.8760 C.2      22   U   -0.3635
    691 C6         35.4500   49.6990   45.0890 C.2      22   U   -0.1126
    692 H5'        37.4125   48.2928   40.9197 H        22   U    0.0679
    693 H5''       38.4434   48.6628   42.3236 H        22   U    0.0679
    694 H4'        37.5083   46.3968   42.5010 H        22   U    0.1174
    695 H3'        34.9895   47.8707   41.9481 H        22   U    0.0615
    696 H2'        33.7656   47.1032   43.7014 H        22   U    0.0972
    697 H1'        35.8791   46.4495   45.4270 H        22   U    0.1824
    698 H3         34.0396   49.0606   48.4161 H        22   U    0.3154
    699 H5         35.4135   51.7612   45.5141 H        22   U    0.1811
    700 H6         35.8256   49.8686   44.0907 H        22   U    0.2188
    701 HO2'       35.3279   44.7536   43.5526 H        22   U    0.4186
    702 P          36.3190   44.6220   41.5080 P.3      23   A    1.1662
    703 OP1        36.2430   44.0630   42.8810 O.co2    23   A   -0.7760
    704 OP2        37.6350   44.8770   40.8940 O.co2    23   A   -0.7760
    705 O5'        35.5790   43.6230   40.5240 O.3      23   A   -0.4989
    706 C5'        34.1690   43.4630   40.6180 C.3      23   A    0.0558
    707 C4'        33.4940   43.7050   39.2830 C.3      23   A    0.1065
    708 O4'        33.6430   45.0680   38.8390 O.3      23   A   -0.3548
    709 C3'        34.0010   42.8840   38.1230 C.3      23   A    0.2022
    710 O3'        33.3340   41.6320   38.1880 O.3      23   A   -0.5246
    711 C2'        33.4810   43.6590   36.9240 C.3      23   A    0.0670
    712 O2'        32.1600   43.2400   36.6740 O.3      23   A   -0.6139
    713 C1'        33.5030   45.1040   37.4360 C.3      23   A    0.0394
    714 N9         34.5650   45.9470   36.8900 N.ar     23   A   -0.0251
    715 C8         35.8520   46.0820   37.3360 C.ar     23   A    0.2006
    716 N7         36.5640   46.9380   36.6400 N.ar     23   A   -0.6073
    717 C5         35.6870   47.3860   35.6680 C.ar     23   A    0.0515
    718 C6         35.8270   48.3010   34.6220 C.ar     23   A    0.7009
    719 N6         36.9440   48.9770   34.3690 N.pl3    23   A   -0.9019
    720 N1         34.7600   48.5130   33.8330 N.ar     23   A   -0.7615
    721 C2         33.6280   47.8590   34.0940 C.ar     23   A    0.5875
    722 N3         33.3680   46.9850   35.0480 N.ar     23   A   -0.6997
    723 C4         34.4510   46.7850   35.8080 C.ar     23   A    0.3053
    724 H5'        33.9488   42.4476   40.9475 H        23   A    0.0679
    725 H5''       33.7771   44.1693   41.3499 H        23   A    0.0679
    726 H4'        32.4295   43.5024   39.4008 H        23   A    0.1174
    727 H3'        35.0863   42.7833   38.1209 H        23   A    0.0615
    728 H2'        34.1193   43.5292   36.0500 H        23   A    0.0972
    729 H1'        32.5442   45.5654   37.1995 H        23   A    0.2007
    730 H8         36.2449   45.5359   38.1809 H        23   A    0.1553
    731 H2         32.8052   48.0757   33.4289 H        23   A    0.0473
    732 HO2'       31.9339   43.4219   35.7589 H        23   A    0.4186
    733 H61        37.7596   48.8397   34.9486 H        23   A    0.4115
    734 H62        36.9767   49.6277   33.5972 H        23   A    0.4115
    735 P          34.1890   40.2770   38.1550 P.3      24   A    1.1662
    736 OP1        35.6170   40.6670   38.3360 O.co2    24   A   -0.7760
    737 OP2        33.7670   39.5260   36.9390 O.co2    24   A   -0.7760
    738 O5'        33.7020   39.4610   39.4330 O.3      24   A   -0.4989
    739 C5'        34.1370   39.8170   40.7390 C.3      24   A    0.0558
    740 C4'        33.5400   38.8720   41.7460 C.3      24   A    0.1065
    741 O4'        32.1030   39.0320   41.7920 O.3      24   A   -0.3548
    742 C3'        33.6920   37.4140   41.3890 C.3      24   A    0.2022
    743 O3'        34.9810   36.9690   41.7360 O.3      24   A   -0.5246
    744 C2'        32.6180   36.7700   42.2430 C.3      24   A    0.0670
    745 O2'        32.9810   36.7030   43.6000 O.3      24   A   -0.6139
    746 C1'        31.5000   37.7940   42.1100 C.3      24   A    0.0394
    747 N9         30.5490   37.4570   41.0640 N.ar     24   A   -0.0251
    748 C8         30.5000   37.9070   39.7730 C.ar     24   A    0.2006
    749 N7         29.5070   37.4110   39.0780 N.ar     24   A   -0.6073
    750 C5         28.8540   36.5790   39.9780 C.ar     24   A    0.0515
    751 C6         27.7140   35.7440   39.8620 C.ar     24   A    0.7009
    752 N6         26.9920   35.5950   38.7440 N.pl3    24   A   -0.9019
    753 N1         27.3420   35.0460   40.9540 N.ar     24   A   -0.7615
    754 C2         28.0710   35.1700   42.0700 C.ar     24   A    0.5875
    755 N3         29.1530   35.9090   42.2970 N.ar     24   A   -0.6997
    756 C4         29.4940   36.5990   41.2000 C.ar     24   A    0.3053
    757 H5'        33.8170   40.8347   40.9628 H        24   A    0.0679
    758 H5''       35.2244   39.7596   40.7876 H        24   A    0.0679
    759 H4'        33.9668   39.0601   42.7312 H        24   A    0.1174
    760 H3'        33.4963   37.2506   40.3292 H        24   A    0.0615
    761 H2'        32.3224   35.7954   41.8546 H        24   A    0.0972
    762 H1'        30.9750   37.8815   43.0612 H        24   A    0.2007
    763 H8         31.2142   38.6067   39.3647 H        24   A    0.1553
    764 H2         27.7300   34.5831   42.9101 H        24   A    0.0473
    765 HO2'       32.6909   35.8653   43.9683 H        24   A    0.4186
    766 H61        27.1628   36.2988   38.0400 H        24   A    0.4115
    767 H62        26.3317   34.8416   38.6155 H        24   A    0.4115
    768 P          35.6430   35.7800   40.8950 P.3      25   C    1.1662
    769 OP1        37.0290   35.5840   41.3810 O.co2    25   C   -0.7760
    770 OP2        35.3940   36.0650   39.4590 O.co2    25   C   -0.7760
    771 O5'        34.7840   34.5120   41.3090 O.3      25   C   -0.4989
    772 C5'        34.6980   34.1560   42.6680 C.3      25   C    0.0558
    773 C4'        33.7070   33.0570   42.8510 C.3      25   C    0.1065
    774 O4'        32.3730   33.5540   42.5990 O.3      25   C   -0.3548
    775 C3'        33.8280   31.9530   41.8320 C.3      25   C    0.2022
    776 O3'        34.9030   31.0970   42.1600 O.3      25   C   -0.5246
    777 C2'        32.4700   31.2750   41.9560 C.3      25   C    0.0670
    778 O2'        32.3520   30.4290   43.0820 O.3      25   C   -0.6139
    779 C1'        31.5560   32.4870   42.1340 C.3      25   C    0.0066
    780 N1         30.9350   32.8810   40.8620 N.am     25   C   -0.0484
    781 C2         29.8000   32.1830   40.4220 C.2      25   C    0.7538
    782 O2         29.3450   31.2640   41.1280 O.2      25   C   -0.6252
    783 N3         29.2240   32.5280   39.2430 N.2      25   C   -0.7584
    784 C4         29.7350   33.5270   38.5170 C.2      25   C    0.8185
    785 N4         29.1230   33.8370   37.3640 N.pl3    25   C   -0.9530
    786 C5         30.8910   34.2550   38.9420 C.2      25   C   -0.5215
    787 C6         31.4510   33.9020   40.1100 C.2      25   C    0.0053
    788 H5'        35.6754   33.8206   43.0147 H        25   C    0.0679
    789 H5''       34.3866   35.0237   43.2497 H        25   C    0.0679
    790 H4'        33.7750   32.6501   43.8599 H        25   C    0.1174
    791 H3'        33.9595   32.3672   40.8324 H        25   C    0.0615
    792 H2'        32.2227   30.7364   41.0412 H        25   C    0.0972
    793 H1'        30.7836   32.2638   42.8700 H        25   C    0.2029
    794 H5         31.2978   35.0583   38.3457 H        25   C    0.1928
    795 H6         32.3233   34.4325   40.4623 H        25   C    0.1958
    796 H41        28.3063   33.3201   37.0709 H        25   C    0.4234
    797 H42        29.4790   34.5873   36.7891 H        25   C    0.4234
    798 HO2'       32.9255   29.6671   42.9719 H        25   C    0.4186
    799 P          35.5290   30.1590   41.0280 P.3      26   A    1.1662
    800 OP1        36.6600   29.3880   41.6140 O.co2    26   A   -0.7760
    801 OP2        35.7700   31.0570   39.8760 O.co2    26   A   -0.7760
    802 O5'        34.3380   29.1550   40.6940 O.3      26   A   -0.4989
    803 C5'        34.0800   28.7230   39.3640 C.3      26   A    0.0558
    804 C4'        32.5900   28.5990   39.1500 C.3      26   A    0.1065
    805 O4'        32.0040   29.9200   39.0500 O.3      26   A   -0.3548
    806 C3'        32.1620   27.9140   37.8710 C.3      26   A    0.2022
    807 O3'        32.1120   26.5310   38.1240 O.3      26   A   -0.5246
    808 C2'        30.7630   28.4650   37.6530 C.3      26   A    0.0670
    809 O2'        29.7910   27.8420   38.4670 O.3      26   A   -0.6139
    810 C1'        30.9470   29.9060   38.1060 C.3      26   A    0.0394
    811 N9         31.3190   30.8030   37.0180 N.ar     26   A   -0.0251
    812 C8         32.4260   31.6030   36.9620 C.ar     26   A    0.2006
    813 N7         32.4620   32.3760   35.9080 N.ar     26   A   -0.6073
    814 C5         31.3100   32.0450   35.2160 C.ar     26   A    0.0515
    815 C6         30.7550   32.5280   34.0250 C.ar     26   A    0.7009
    816 N6         31.3050   33.5140   33.3040 N.pl3    26   A   -0.9019
    817 N1         29.6000   31.9710   33.5990 N.ar     26   A   -0.7615
    818 C2         29.0520   31.0080   34.3350 C.ar     26   A    0.5875
    819 N3         29.4690   30.4820   35.4770 N.ar     26   A   -0.6997
    820 C4         30.6120   31.0530   35.8710 C.ar     26   A    0.3053
    821 H5'        34.5515   27.7541   39.1998 H        26   A    0.0679
    822 H5''       34.4884   29.4490   38.6610 H        26   A    0.0679
    823 H4'        32.1497   28.0766   39.9993 H        26   A    0.1174
    824 H3'        32.8266   28.1517   37.0404 H        26   A    0.0615
    825 H2'        30.4823   28.4175   36.6008 H        26   A    0.0972
    826 H1'        30.0306   30.2618   38.5769 H        26   A    0.2007
    827 H8         33.1981   31.5971   37.7171 H        26   A    0.1553
    828 H2         28.1336   30.5949   33.9448 H        26   A    0.0473
    829 H61        30.8800   33.6217   32.3941 H        26   A    0.4115
    830 H62        32.0656   34.0898   33.6358 H        26   A    0.4115
    831 HO2'       28.9583   28.3131   38.3881 H        26   A    0.4186
    832 P          32.7970   25.5240   37.0970 P.3      27   A    1.1662
    833 OP1        32.7380   24.1730   37.7270 O.co2    27   A   -0.7760
    834 OP2        34.1060   26.1150   36.6790 O.co2    27   A   -0.7760
    835 O5'        31.7940   25.5520   35.8710 O.3      27   A   -0.4989
    836 C5'        30.4040   25.3900   36.0940 C.3      27   A    0.0558
    837 C4'        29.6480   25.8480   34.8910 C.3      27   A    0.1065
    838 O4'        29.7160   27.2880   34.7960 O.3      27   A   -0.3548
    839 C3'        30.2570   25.3920   33.5870 C.3      27   A    0.2022
    840 O3'        29.8380   24.0890   33.2800 O.3      27   A   -0.5246
    841 C2'        29.6720   26.3860   32.6040 C.3      27   A    0.0670
    842 O2'        28.3430   26.0630   32.2570 O.3      27   A   -0.6139
    843 C1'        29.6860   27.6630   33.4350 C.3      27   A    0.0394
    844 N9         30.8620   28.4710   33.1660 N.ar     27   A   -0.0251
    845 C8         32.0370   28.5590   33.8550 C.ar     27   A    0.2006
    846 N7         32.8580   29.4550   33.3730 N.ar     27   A   -0.6073
    847 C5         32.1810   29.9710   32.2820 C.ar     27   A    0.0515
    848 C6         32.5040   30.9730   31.3560 C.ar     27   A    0.7009
    849 N6         33.6360   31.6800   31.3920 N.pl3    27   A   -0.9019
    850 N1         31.6100   31.2370   30.3880 N.ar     27   A   -0.7615
    851 C2         30.4630   30.5380   30.3690 C.ar     27   A    0.5875
    852 N3         30.0430   29.5840   31.1890 N.ar     27   A   -0.6997
    853 C4         30.9600   29.3510   32.1310 C.ar     27   A    0.3053
    854 H5'        30.1866   24.3383   36.2804 H        27   A    0.0679
    855 H5''       30.1036   25.9817   36.9587 H        27   A    0.0679
    856 H4'        28.6091   25.5242   34.9542 H        27   A    0.1174
    857 H3'        31.3445   25.4596   33.6153 H        27   A    0.0615
    858 H2'        30.2999   26.4832   31.7183 H        27   A    0.0972
    859 H1'        28.7861   28.2438   33.2328 H        27   A    0.2007
    860 H8         32.2663   27.9475   34.7152 H        27   A    0.1553
    861 H2         29.7831   30.7899   29.5685 H        27   A    0.0473
    862 HO2'       28.3352   25.5964   31.4181 H        27   A    0.4186
    863 H61        33.9717   32.5443   30.9914 H        27   A    0.4115
    864 H62        34.3371   31.2364   31.9681 H        27   A    0.4115
    865 P          30.7820   23.1550   32.3960 P.3      28   A    1.1662
    866 OP1        30.5520   21.7790   32.9090 O.co2    28   A   -0.7760
    867 OP2        32.1560   23.7340   32.3910 O.co2    28   A   -0.7760
    868 O5'        30.1520   23.2470   30.9370 O.3      28   A   -0.4989
    869 C5'        28.9140   22.6000   30.6510 C.3      28   A    0.0558
    870 C4'        28.3680   23.0880   29.3400 C.3      28   A    0.1065
    871 O4'        28.2620   24.5290   29.3930 O.3      28   A   -0.3548
    872 C3'        29.2450   22.8520   28.1260 C.3      28   A    0.2022
    873 O3'        28.9890   21.5860   27.5710 O.3      28   A   -0.5246
    874 C2'        28.7270   23.8980   27.1560 C.3      28   A    0.0670
    875 O2'        27.5170   23.5230   26.5410 O.3      28   A   -0.6139
    876 C1'        28.4460   25.0560   28.0970 C.3      28   A    0.0394
    877 N9         29.5860   25.9350   28.1250 N.ar     28   A   -0.0251
    878 C8         30.8180   25.7680   28.6880 C.ar     28   A    0.2006
    879 N7         31.5970   26.8020   28.5440 N.ar     28   A   -0.6073
    880 C5         30.8190   27.7030   27.8240 C.ar     28   A    0.0515
    881 C6         31.0580   28.9920   27.3520 C.ar     28   A    0.7009
    882 N6         32.1990   29.6400   27.5330 N.pl3    28   A   -0.9019
    883 N1         30.0650   29.6080   26.6720 N.ar     28   A   -0.7615
    884 C2         28.9210   28.9510   26.4860 C.ar     28   A    0.5875
    885 N3         28.5830   27.7380   26.8810 N.ar     28   A   -0.6997
    886 C4         29.5930   27.1660   27.5570 C.ar     28   A    0.3053
    887 H5'        28.1997   22.8218   31.4439 H        28   A    0.0679
    888 H5''       29.0727   21.5229   30.5982 H        28   A    0.0679
    889 H4'        27.3826   22.6544   29.1696 H        28   A    0.1174
    890 H3'        30.3020   22.9926   28.3522 H        28   A    0.0615
    891 H2'        29.4828   24.1622   26.4164 H        28   A    0.0972
    892 H1'        27.5560   25.5980   27.7773 H        28   A    0.2007
    893 H8         31.1176   24.8669   29.2025 H        28   A    0.1553
    894 H2         28.1631   29.4868   25.9339 H        28   A    0.0473
    895 HO2'       27.5717   23.6908   25.5974 H        28   A    0.4186
    896 H61        32.6856   29.6579   26.6482 H        28   A    0.4115
    897 H62        31.9844   30.5914   27.7954 H        28   A    0.4115
    898 P          29.7830   21.1400   26.2610 P.3      29   A    1.1662
    899 OP1        29.1920   19.8270   25.8660 O.co2    29   A   -0.7760
    900 OP2        31.2330   21.2490   26.5660 O.co2    29   A   -0.7760
    901 O5'        29.4340   22.2430   25.1610 O.3      29   A   -0.4989
    902 C5'        28.3120   22.0740   24.3050 C.3      29   A    0.0558
    903 C4'        28.1720   23.2520   23.3680 C.3      29   A    0.1065
    904 O4'        28.1790   24.4760   24.1420 O.3      29   A   -0.3548
    905 C3'        29.2590   23.5180   22.3440 C.3      29   A    0.2022
    906 O3'        29.1300   22.7300   21.1820 O.3      29   A   -0.5246
    907 C2'        28.9560   24.9530   21.9610 C.3      29   A    0.0670
    908 O2'        27.8770   25.0290   21.0570 O.3      29   A   -0.6139
    909 C1'        28.5780   25.5470   23.3150 C.3      29   A    0.0394
    910 N9         29.7630   26.1550   23.9040 N.ar     29   A   -0.0251
    911 C8         30.7300   25.6300   24.7250 C.ar     29   A    0.2006
    912 N7         31.6810   26.4830   25.0180 N.ar     29   A   -0.6073
    913 C5         31.3050   27.6380   24.3510 C.ar     29   A    0.0515
    914 C6         31.8870   28.9100   24.2480 C.ar     29   A    0.7009
    915 N6         33.0260   29.2490   24.8400 N.pl3    29   A   -0.9019
    916 N1         31.2500   29.8350   23.5060 N.ar     29   A   -0.7615
    917 C2         30.1040   29.4960   22.9070 C.ar     29   A    0.5875
    918 N3         29.4600   28.3390   22.9250 N.ar     29   A   -0.6997
    919 C4         30.1210   27.4480   23.6700 C.ar     29   A    0.3053
    920 H5'        28.4432   21.1644   23.7188 H        29   A    0.0679
    921 H5''       27.4089   21.9855   24.9090 H        29   A    0.0679
    922 H4'        27.2165   23.1731   22.8494 H        29   A    0.1174
    923 H3'        30.2524   23.4231   22.7825 H        29   A    0.0615
    924 H2'        29.8406   25.4427   21.5539 H        29   A    0.0972
    925 H1'        27.7762   26.2779   23.2098 H        29   A    0.2007
    926 H8         30.7092   24.6148   25.0929 H        29   A    0.1553
    927 H2         29.6368   30.2770   22.3255 H        29   A    0.0473
    928 HO2'       28.1763   25.4202   20.2330 H        29   A    0.4186
    929 H61        33.7639   28.5604   24.8024 H        29   A    0.4115
    930 H62        33.1471   30.1402   25.2995 H        29   A    0.4115
    931 P          30.3170   22.7340   20.1030 P.3      30   C    1.1662
    932 OP1        29.9170   21.8640   18.9810 O.co2    30   C   -0.7760
    933 OP2        31.5960   22.4920   20.8120 O.co2    30   C   -0.7760
    934 O5'        30.3560   24.2130   19.5380 O.3      30   C   -0.4989
    935 C5'        29.3380   24.6660   18.6760 C.3      30   C    0.0558
    936 C4'        29.5760   26.0990   18.3610 C.3      30   C    0.1065
    937 O4'        29.7860   26.7660   19.6240 O.3      30   C   -0.3548
    938 C3'        30.8670   26.3570   17.6160 C.3      30   C    0.2022
    939 O3'        30.6570   26.2040   16.2270 O.3      30   C   -0.5246
    940 C2'        31.1500   27.7990   17.9940 C.3      30   C    0.0670
    941 O2'        30.3260   28.7120   17.2970 O.3      30   C   -0.6139
    942 C1'        30.7380   27.7930   19.4630 C.3      30   C    0.0066
    943 N1         31.8540   27.5340   20.3790 N.am     30   C   -0.0484
    944 C2         32.7240   28.5760   20.6420 C.2      30   C    0.7538
    945 O2         32.5420   29.6490   20.0570 O.2      30   C   -0.6252
    946 N3         33.7380   28.3920   21.5170 N.2      30   C   -0.7584
    947 C4         33.8970   27.2090   22.1090 C.2      30   C    0.8185
    948 N4         34.8990   27.0750   22.9720 N.pl3    30   C   -0.9530
    949 C5         33.0300   26.1100   21.8410 C.2      30   C   -0.5215
    950 C6         32.0300   26.3140   20.9730 C.2      30   C    0.0053
    951 H5'        28.3695   24.5547   19.1635 H        30   C    0.0679
    952 H5''       29.3526   24.0825   17.7554 H        30   C    0.0679
    953 H4'        28.7265   26.5280   17.8297 H        30   C    0.1174
    954 H3'        31.6604   25.6972   17.9671 H        30   C    0.0615
    955 H2'        32.2057   28.0432   17.8761 H        30   C    0.0972
    956 H1'        30.2811   28.7505   19.7131 H        30   C    0.2029
    957 H5         33.1733   25.1518   22.3182 H        30   C    0.1928
    958 H6         31.3540   25.5049   20.7391 H        30   C    0.1958
    959 H41        35.5112   27.8560   23.1603 H        30   C    0.4234
    960 H42        35.0482   26.1922   23.4395 H        30   C    0.4234
    961 HO2'       30.7944   29.0432   16.5272 H        30   C    0.4186
    962 P          31.9030   26.2660   15.2250 P.3      31   A    1.1662
    963 OP1        31.3410   26.2080   13.8490 O.co2    31   A   -0.7760
    964 OP2        32.9290   25.2770   15.6610 O.co2    31   A   -0.7760
    965 O5'        32.4780   27.7280   15.4300 O.3      31   A   -0.4989
    966 C5'        31.8890   28.8300   14.7690 C.3      31   A    0.0558
    967 C4'        32.8850   29.9380   14.7160 C.3      31   A    0.1065
    968 O4'        33.2430   30.2490   16.0790 O.3      31   A   -0.3548
    969 C3'        34.1980   29.5430   14.0580 C.3      31   A    0.2022
    970 O3'        34.1170   29.8160   12.6710 O.3      31   A   -0.5246
    971 C2'        35.2100   30.4450   14.7510 C.3      31   A    0.0670
    972 O2'        35.2290   31.7580   14.2220 O.3      31   A   -0.6139
    973 C1'        34.6340   30.4990   16.1630 C.3      31   A    0.0394
    974 N9         35.2000   29.5740   17.1430 N.ar     31   A   -0.0251
    975 C8         34.6910   28.3820   17.6030 C.ar     31   A    0.2006
    976 N7         35.3610   27.8750   18.6060 N.ar     31   A   -0.6073
    977 C5         36.4020   28.7710   18.7930 C.ar     31   A    0.0515
    978 C6         37.4510   28.8140   19.7210 C.ar     31   A    0.7009
    979 N6         37.6190   27.9210   20.7020 N.pl3    31   A   -0.9019
    980 N1         38.3310   29.8280   19.6180 N.ar     31   A   -0.7615
    981 C2         38.1480   30.7440   18.6560 C.ar     31   A    0.5875
    982 N3         37.1930   30.8240   17.7390 N.ar     31   A   -0.6997
    983 C4         36.3400   29.7970   17.8660 C.ar     31   A    0.3053
    984 H5'        31.0046   29.1568   15.3160 H        31   A    0.0679
    985 H5''       31.6075   28.5418   13.7562 H        31   A    0.0679
    986 H4'        32.4586   30.8121   14.2238 H        31   A    0.1174
    987 H3'        34.4242   28.4919   14.2370 H        31   A    0.0615
    988 H2'        36.2055   30.0011   14.7457 H        31   A    0.0972
    989 H1'        34.7698   31.5121   16.5415 H        31   A    0.2007
    990 H8         33.8193   27.9085   17.1760 H        31   A    0.1553
    991 H2         38.8861   31.5318   18.6230 H        31   A    0.0473
    992 HO2'       35.7110   32.3365   14.8175 H        31   A    0.4186
    993 H61        38.2797   27.5893   21.3901 H        31   A    0.4115
    994 H62        36.7720   27.3772   20.7859 H        31   A    0.4115
    995 P          35.1340   29.1130   11.6550 P.3      32   A    1.1662
    996 OP1        34.2980   28.3290   10.7190 O.co2    32   A   -0.7760
    997 OP2        36.2030   28.4350   12.4380 O.co2    32   A   -0.7760
    998 O5'        35.7510   30.3510   10.8670 O.3      32   A   -0.4989
    999 C5'        34.9210   31.4040   10.3780 C.3      32   A    0.0558
   1000 C4'        35.7410   32.6650   10.2340 C.3      32   A    0.1065
   1001 O4'        36.0760   33.1770   11.5520 O.3      32   A   -0.3548
   1002 C3'        37.0820   32.4510    9.5510 C.3      32   A    0.2022
   1003 O3'        36.9610   32.5190    8.1300 O.3      32   A   -0.5246
   1004 C2'        37.9470   33.5560   10.1490 C.3      32   A    0.0670
   1005 O2'        37.6820   34.8090    9.5530 O.3      32   A   -0.6139
   1006 C1'        37.4370   33.5770   11.5900 C.3      32   A    0.0394
   1007 N9         38.1290   32.6880   12.5300 N.ar     32   A   -0.0251
   1008 C8         37.8660   31.3610   12.7610 C.ar     32   A    0.2006
   1009 N7         38.5980   30.8370   13.7140 N.ar     32   A   -0.6073
   1010 C5         39.4080   31.8830   14.1300 C.ar     32   A    0.0515
   1011 C6         40.4100   31.9810   15.1290 C.ar     32   A    0.7009
   1012 N6         40.7580   30.9750   15.9490 N.pl3    32   A   -0.9019
   1013 N1         41.0410   33.1670   15.2670 N.ar     32   A   -0.7615
   1014 C2         40.6760   34.1830   14.4730 C.ar     32   A    0.5875
   1015 N3         39.7470   34.2190   13.5180 N.ar     32   A   -0.6997
   1016 C4         39.1440   33.0280   13.3930 C.ar     32   A    0.3053
   1017 H5'        34.5123   31.1235    9.4072 H        32   A    0.0679
   1018 H5''       34.1050   31.5791   11.0791 H        32   A    0.0679
   1019 H4'        35.1676   33.4130    9.6865 H        32   A    0.1174
   1020 H3'        37.4847   31.4790    9.8360 H        32   A    0.0615
   1021 H2'        39.0068   33.3056   10.1021 H        32   A    0.0972
   1022 H1'        37.4924   34.5982   11.9671 H        32   A    0.2007
   1023 H8         37.1254   30.8009   12.2094 H        32   A    0.1553
   1024 H2         41.2127   35.1070   14.6298 H        32   A    0.0473
   1025 H61        40.2992   30.0786   15.8715 H        32   A    0.4115
   1026 H62        41.4784   31.1153   16.6429 H        32   A    0.4115
   1027 HO2'       37.9988   34.8062    8.6468 H        32   A    0.4186
   1028 P          37.5910   31.3450    7.2140 P.3      33   G    1.1662
   1029 OP1        37.4910   31.7540    5.7790 O.co2    33   G   -0.7760
   1030 OP2        37.0050   30.0480    7.6640 O.co2    33   G   -0.7760
   1031 O5'        39.1230   31.3000    7.6390 O.3      33   G   -0.4989
   1032 C5'        39.4530   30.8540    8.9260 C.3      33   G    0.0558
   1033 C4'        40.7970   31.3660    9.3360 C.3      33   G    0.1065
   1034 O4'        40.7770   31.5100   10.7710 O.3      33   G   -0.3548
   1035 C3'        41.9150   30.3960    8.9980 C.3      33   G    0.2022
   1036 O3'        42.5550   30.8380    7.7950 O.3      33   G   -0.6541
   1037 C2'        42.7690   30.3620   10.2680 C.3      33   G    0.0670
   1038 O2'        43.8020   31.3270   10.3300 O.3      33   G   -0.6139
   1039 C1'        41.7280   30.6490   11.3520 C.3      33   G    0.0191
   1040 N9         41.0060   29.4810   11.8450 N.ar     33   G    0.0492
   1041 C8         39.7720   29.0340   11.4310 C.ar     33   G    0.1374
   1042 N7         39.3760   27.9630   12.0590 N.ar     33   G   -0.5709
   1043 C5         40.4090   27.6880   12.9420 C.ar     33   G    0.1744
   1044 C6         40.5500   26.6470   13.8850 C.2      33   G    0.4770
   1045 O6         39.7670   25.7290   14.1350 O.2      33   G   -0.5597
   1046 N1         41.7520   26.7450   14.5760 N.am     33   G   -0.4787
   1047 C2         42.6900   27.7300   14.3830 C.2      33   G    0.7657
   1048 N2         43.7700   27.6750   15.1820 N.pl3    33   G   -0.9672
   1049 N3         42.5750   28.6980   13.4890 N.2      33   G   -0.6323
   1050 C4         41.4180   28.6180   12.8150 C.ar     33   G    0.1222
   1051 H5'        38.7035   31.2124    9.6316 H        33   G    0.0679
   1052 H5''       39.4648   29.7641    8.9368 H        33   G    0.0679
   1053 H4'        40.9869   32.3315    8.8672 H        33   G    0.1174
   1054 H3'        41.4884   29.4070    8.8305 H        33   G    0.0615
   1055 H2'        43.1849   29.3643   10.4084 H        33   G    0.0972
   1056 H1'        42.2090   31.1553   12.1889 H        33   G    0.2006
   1057 H8         39.1903   29.5218   10.6629 H        33   G    0.1640
   1058 H1         41.9505   26.0399   15.2714 H        33   G    0.3424
   1059 H21        43.8543   26.9377   15.8672 H        33   G    0.4364
   1060 H22        44.4970   28.3709   15.0970 H        33   G    0.4364
   1061 HO3'       43.2652   30.2330    7.5690 H        33   G    0.4376
   1062 HO2'       44.4530   31.1438    9.6487 H        33   G    0.4186
@<TRIPOS>BOND
     1    1    2 1
     2    2    3 1
     3    3    5 1
     4    3    4 1
     5    4    9 1
     6    5    7 1
     7    5    6 1
     8    7    9 1
     9    7    8 1
    10    9   10 1
    11   10   11 am
    12   10   17 1
    13   11   13 1
    14   11   12 2
    15   13   14 2
    16   14   16 2
    17   14   15 2
    18   16   17 2
    19   30   32 1
    20   30   33 1
    21   30   31 1
    22   33   34 1
    23   34   35 1
    24   35   37 1
    25   35   36 1
    26   36   41 1
    27   37   39 1
    28   37   38 1
    29   39   40 1
    30   39   41 1
    31   41   42 1
    32   42   43 am
    33   42   49 1
    34   43   44 2
    35   43   45 am
    36   45   46 am
    37   46   48 1
    38   46   47 2
    39   48   49 2
    40   30    6 1
    41   60   63 1
    42   60   61 1
    43   60   62 1
    44   63   64 1
    45   64   65 1
    46   65   66 1
    47   65   67 1
    48   66   71 1
    49   67   68 1
    50   67   69 1
    51   69   70 1
    52   69   71 1
    53   71   72 1
    54   72   82 ar
    55   72   73 ar
    56   73   74 ar
    57   74   75 ar
    58   75   82 ar
    59   75   76 1
    60   76   78 am
    61   76   77 2
    62   78   79 1
    63   79   81 2
    64   79   80 2
    65   81   82 1
    66   38   60 1
    67   94   97 1
    68   94   95 1
    69   94   96 1
    70   97   98 1
    71   98   99 1
    72   99  100 1
    73   99  101 1
    74  100  105 1
    75  101  102 1
    76  101  103 1
    77  103  104 1
    78  103  105 1
    79  105  106 1
    80  106  116 ar
    81  106  107 ar
    82  107  108 ar
    83  108  109 ar
    84  109  116 ar
    85  109  110 1
    86  110  112 am
    87  110  111 2
    88  112  113 1
    89  113  115 2
    90  113  114 2
    91  115  116 1
    92   68   94 1
    93  128  131 1
    94  128  129 1
    95  128  130 1
    96  131  132 1
    97  132  133 1
    98  133  134 1
    99  133  135 1
   100  134  139 1
   101  135  136 1
   102  135  137 1
   103  137  138 1
   104  137  139 1
   105  139  140 1
   106  140  150 ar
   107  140  141 ar
   108  141  142 ar
   109  142  143 ar
   110  143  150 ar
   111  143  144 1
   112  144  146 am
   113  144  145 2
   114  146  147 1
   115  147  149 2
   116  147  148 2
   117  149  150 1
   118  102  128 1
   119  162  164 1
   120  162  165 1
   121  162  163 1
   122  165  166 1
   123  166  167 1
   124  167  169 1
   125  167  168 1
   126  168  173 1
   127  169  171 1
   128  169  170 1
   129  171  172 1
   130  171  173 1
   131  173  174 1
   132  174  175 am
   133  174  181 1
   134  175  176 2
   135  175  177 am
   136  177  178 am
   137  178  180 1
   138  178  179 2
   139  180  181 2
   140  136  162 1
   141  192  194 1
   142  192  195 1
   143  192  193 1
   144  195  196 1
   145  196  197 1
   146  197  199 1
   147  197  198 1
   148  198  203 1
   149  199  201 1
   150  199  200 1
   151  201  202 1
   152  201  203 1
   153  203  204 1
   154  204  205 am
   155  204  211 1
   156  205  206 2
   157  205  207 1
   158  207  208 2
   159  208  210 2
   160  208  209 2
   161  210  211 2
   162  170  192 1
   163  223  226 1
   164  223  224 1
   165  223  225 1
   166  226  227 1
   167  227  228 1
   168  228  229 1
   169  228  230 1
   170  229  234 1
   171  230  231 1
   172  230  232 1
   173  232  233 1
   174  232  234 1
   175  234  235 1
   176  235  245 ar
   177  235  236 ar
   178  236  237 ar
   179  237  238 ar
   180  238  245 ar
   181  238  239 1
   182  239  241 am
   183  239  240 2
   184  241  242 1
   185  242  244 2
   186  242  243 2
   187  244  245 1
   188  200  223 1
   189  257  259 1
   190  257  260 1
   191  257  258 1
   192  260  261 1
   193  261  262 1
   194  262  264 1
   195  262  263 1
   196  263  268 1
   197  264  266 1
   198  264  265 1
   199  266  267 1
   200  266  268 1
   201  268  269 1
   202  269  270 am
   203  269  276 1
   204  270  271 2
   205  270  272 1
   206  272  273 2
   207  273  275 2
   208  273  274 2
   209  275  276 2
   210  231  257 1
   211  288  289 1
   212  288  290 1
   213  288  291 1
   214  291  292 1
   215  292  293 1
   216  293  295 1
   217  293  294 1
   218  294  299 1
   219  295  297 1
   220  295  296 1
   221  297  299 1
   222  297  298 1
   223  299  300 1
   224  300  309 ar
   225  300  301 ar
   226  301  302 ar
   227  302  303 ar
   228  303  309 ar
   229  303  304 ar
   230  304  306 ar
   231  304  305 1
   232  306  307 ar
   233  307  308 ar
   234  308  309 ar
   235  265  288 1
   236  321  324 1
   237  321  322 1
   238  321  323 1
   239  324  325 1
   240  325  326 1
   241  326  327 1
   242  326  328 1
   243  327  332 1
   244  328  329 1
   245  328  330 1
   246  330  331 1
   247  330  332 1
   248  332  333 1
   249  333  343 ar
   250  333  334 ar
   251  334  335 ar
   252  335  336 ar
   253  336  343 ar
   254  336  337 1
   255  337  339 am
   256  337  338 2
   257  339  340 1
   258  340  342 2
   259  340  341 2
   260  342  343 1
   261  296  321 1
   262  355  357 1
   263  355  358 1
   264  355  356 1
   265  358  359 1
   266  359  360 1
   267  360  362 1
   268  360  361 1
   269  361  366 1
   270  362  364 1
   271  362  363 1
   272  364  365 1
   273  364  366 1
   274  366  367 1
   275  367  368 am
   276  367  374 1
   277  368  369 2
   278  368  370 am
   279  370  371 am
   280  371  373 1
   281  371  372 2
   282  373  374 2
   283  329  355 1
   284  385  386 1
   285  385  387 1
   286  385  388 1
   287  388  389 1
   288  389  390 1
   289  390  392 1
   290  390  391 1
   291  391  396 1
   292  392  394 1
   293  392  393 1
   294  394  396 1
   295  394  395 1
   296  396  397 1
   297  397  406 ar
   298  397  398 ar
   299  398  399 ar
   300  399  400 ar
   301  400  406 ar
   302  400  401 ar
   303  401  403 ar
   304  401  402 1
   305  403  404 ar
   306  404  405 ar
   307  405  406 ar
   308  363  385 1
   309  418  419 1
   310  418  420 1
   311  418  421 1
   312  421  422 1
   313  422  423 1
   314  423  425 1
   315  423  424 1
   316  424  429 1
   317  425  427 1
   318  425  426 1
   319  427  429 1
   320  427  428 1
   321  429  430 1
   322  430  439 ar
   323  430  431 ar
   324  431  432 ar
   325  432  433 ar
   326  433  439 ar
   327  433  434 ar
   328  434  436 ar
   329  434  435 1
   330  436  437 ar
   331  437  438 ar
   332  438  439 ar
   333  393  418 1
   334  451  453 1
   335  451  454 1
   336  451  452 1
   337  454  455 1
   338  455  456 1
   339  456  458 1
   340  456  457 1
   341  457  462 1
   342  458  460 1
   343  458  459 1
   344  460  461 1
   345  460  462 1
   346  462  463 1
   347  463  464 am
   348  463  470 1
   349  464  465 2
   350  464  466 1
   351  466  467 2
   352  467  469 2
   353  467  468 2
   354  469  470 2
   355  426  451 1
   356  482  484 1
   357  482  485 1
   358  482  483 1
   359  485  486 1
   360  486  487 1
   361  487  489 1
   362  487  488 1
   363  488  493 1
   364  489  491 1
   365  489  490 1
   366  491  492 1
   367  491  493 1
   368  493  494 1
   369  494  495 am
   370  494  501 1
   371  495  496 2
   372  495  497 1
   373  497  498 2
   374  498  500 2
   375  498  499 2
   376  500  501 2
   377  459  482 1
   378  513  515 1
   379  513  516 1
   380  513  514 1
   381  516  517 1
   382  517  518 1
   383  518  520 1
   384  518  519 1
   385  519  524 1
   386  520  522 1
   387  520  521 1
   388  522  523 1
   389  522  524 1
   390  524  525 1
   391  525  526 am
   392  525  532 1
   393  526  527 2
   394  526  528 1
   395  528  529 2
   396  529  531 2
   397  529  530 2
   398  531  532 2
   399  490  513 1
   400  544  546 1
   401  544  547 1
   402  544  545 1
   403  547  548 1
   404  548  549 1
   405  549  551 1
   406  549  550 1
   407  550  555 1
   408  551  553 1
   409  551  552 1
   410  553  554 1
   411  553  555 1
   412  555  556 1
   413  556  557 am
   414  556  563 1
   415  557  558 2
   416  557  559 1
   417  559  560 2
   418  560  562 2
   419  560  561 2
   420  562  563 2
   421  521  544 1
   422  575  576 1
   423  575  577 1
   424  575  578 1
   425  578  579 1
   426  579  580 1
   427  580  582 1
   428  580  581 1
   429  581  586 1
   430  582  584 1
   431  582  583 1
   432  584  586 1
   433  584  585 1
   434  586  587 1
   435  587  596 ar
   436  587  588 ar
   437  588  589 ar
   438  589  590 ar
   439  590  596 ar
   440  590  591 ar
   441  591  593 ar
   442  591  592 1
   443  593  594 ar
   444  594  595 ar
   445  595  596 ar
   446  552  575 1
   447  608  611 1
   448  608  609 1
   449  608  610 1
   450  611  612 1
   451  612  613 1
   452  613  614 1
   453  613  615 1
   454  614  619 1
   455  615  616 1
   456  615  617 1
   457  617  618 1
   458  617  619 1
   459  619  620 1
   460  620  630 ar
   461  620  621 ar
   462  621  622 ar
   463  622  623 ar
   464  623  630 ar
   465  623  624 1
   466  624  626 am
   467  624  625 2
   468  626  627 1
   469  627  629 2
   470  627  628 2
   471  629  630 1
   472  583  608 1
   473  642  644 1
   474  642  645 1
   475  642  643 1
   476  645  646 1
   477  646  647 1
   478  647  649 1
   479  647  648 1
   480  648  653 1
   481  649  651 1
   482  649  650 1
   483  651  652 1
   484  651  653 1
   485  653  654 1
   486  654  655 am
   487  654  661 1
   488  655  656 2
   489  655  657 am
   490  657  658 am
   491  658  660 1
   492  658  659 2
   493  660  661 2
   494  616  642 1
   495  672  674 1
   496  672  675 1
   497  672  673 1
   498  675  676 1
   499  676  677 1
   500  677  679 1
   501  677  678 1
   502  678  683 1
   503  679  681 1
   504  679  680 1
   505  681  682 1
   506  681  683 1
   507  683  684 1
   508  684  685 am
   509  684  691 1
   510  685  686 2
   511  685  687 am
   512  687  688 am
   513  688  690 1
   514  688  689 2
   515  690  691 2
   516  650  672 1
   517  702  703 1
   518  702  704 1
   519  702  705 1
   520  705  706 1
   521  706  707 1
   522  707  709 1
   523  707  708 1
   524  708  713 1
   525  709  711 1
   526  709  710 1
   527  711  713 1
   528  711  712 1
   529  713  714 1
   530  714  723 ar
   531  714  715 ar
   532  715  716 ar
   533  716  717 ar
   534  717  723 ar
   535  717  718 ar
   536  718  720 ar
   537  718  719 1
   538  720  721 ar
   539  721  722 ar
   540  722  723 ar
   541  680  702 1
   542  735  736 1
   543  735  737 1
   544  735  738 1
   545  738  739 1
   546  739  740 1
   547  740  742 1
   548  740  741 1
   549  741  746 1
   550  742  744 1
   551  742  743 1
   552  744  746 1
   553  744  745 1
   554  746  747 1
   555  747  756 ar
   556  747  748 ar
   557  748  749 ar
   558  749  750 ar
   559  750  756 ar
   560  750  751 ar
   561  751  753 ar
   562  751  752 1
   563  753  754 ar
   564  754  755 ar
   565  755  756 ar
   566  710  735 1
   567  768  770 1
   568  768  771 1
   569  768  769 1
   570  771  772 1
   571  772  773 1
   572  773  775 1
   573  773  774 1
   574  774  779 1
   575  775  777 1
   576  775  776 1
   577  777  778 1
   578  777  779 1
   579  779  780 1
   580  780  781 am
   581  780  787 1
   582  781  782 2
   583  781  783 1
   584  783  784 2
   585  784  786 2
   586  784  785 2
   587  786  787 2
   588  743  768 1
   589  799  800 1
   590  799  801 1
   591  799  802 1
   592  802  803 1
   593  803  804 1
   594  804  806 1
   595  804  805 1
   596  805  810 1
   597  806  808 1
   598  806  807 1
   599  808  810 1
   600  808  809 1
   601  810  811 1
   602  811  820 ar
   603  811  812 ar
   604  812  813 ar
   605  813  814 ar
   606  814  820 ar
   607  814  815 ar
   608  815  817 ar
   609  815  816 1
   610  817  818 ar
   611  818  819 ar
   612  819  820 ar
   613  776  799 1
   614  832  833 1
   615  832  834 1
   616  832  835 1
   617  835  836 1
   618  836  837 1
   619  837  839 1
   620  837  838 1
   621  838  843 1
   622  839  841 1
   623  839  840 1
   624  841  843 1
   625  841  842 1
   626  843  844 1
   627  844  853 ar
   628  844  845 ar
   629  845  846 ar
   630  846  847 ar
   631  847  853 ar
   632  847  848 ar
   633  848  850 ar
   634  848  849 1
   635  850  851 ar
   636  851  852 ar
   637  852  853 ar
   638  807  832 1
   639  865  866 1
   640  865  867 1
   641  865  868 1
   642  868  869 1
   643  869  870 1
   644  870  872 1
   645  870  871 1
   646  871  876 1
   647  872  874 1
   648  872  873 1
   649  874  876 1
   650  874  875 1
   651  876  877 1
   652  877  886 ar
   653  877  878 ar
   654  878  879 ar
   655  879  880 ar
   656  880  886 ar
   657  880  881 ar
   658  881  883 ar
   659  881  882 1
   660  883  884 ar
   661  884  885 ar
   662  885  886 ar
   663  840  865 1
   664  898  899 1
   665  898  900 1
   666  898  901 1
   667  901  902 1
   668  902  903 1
   669  903  905 1
   670  903  904 1
   671  904  909 1
   672  905  907 1
   673  905  906 1
   674  907  909 1
   675  907  908 1
   676  909  910 1
   677  910  919 ar
   678  910  911 ar
   679  911  912 ar
   680  912  913 ar
   681  913  919 ar
   682  913  914 ar
   683  914  916 ar
   684  914  915 1
   685  916  917 ar
   686  917  918 ar
   687  918  919 ar
   688  873  898 1
   689  931  933 1
   690  931  934 1
   691  931  932 1
   692  934  935 1
   693  935  936 1
   694  936  938 1
   695  936  937 1
   696  937  942 1
   697  938  940 1
   698  938  939 1
   699  940  941 1
   700  940  942 1
   701  942  943 1
   702  943  944 am
   703  943  950 1
   704  944  945 2
   705  944  946 1
   706  946  947 2
   707  947  949 2
   708  947  948 2
   709  949  950 2
   710  906  931 1
   711  962  963 1
   712  962  964 1
   713  962  965 1
   714  965  966 1
   715  966  967 1
   716  967  969 1
   717  967  968 1
   718  968  973 1
   719  969  971 1
   720  969  970 1
   721  971  973 1
   722  971  972 1
   723  973  974 1
   724  974  983 ar
   725  974  975 ar
   726  975  976 ar
   727  976  977 ar
   728  977  983 ar
   729  977  978 ar
   730  978  980 ar
   731  978  979 1
   732  980  981 ar
   733  981  982 ar
   734  982  983 ar
   735  939  962 1
   736  995  996 1
   737  995  997 1
   738  995  998 1
   739  998  999 1
   740  999 1000 1
   741 1000 1002 1
   742 1000 1001 1
   743 1001 1006 1
   744 1002 1004 1
   745 1002 1003 1
   746 1004 1006 1
   747 1004 1005 1
   748 1006 1007 1
   749 1007 1016 ar
   750 1007 1008 ar
   751 1008 1009 ar
   752 1009 1010 ar
   753 1010 1016 ar
   754 1010 1011 ar
   755 1011 1013 ar
   756 1011 1012 1
   757 1013 1014 ar
   758 1014 1015 ar
   759 1015 1016 ar
   760  970  995 1
   761 1031 1032 1
   762 1032 1033 1
   763 1033 1035 1
   764 1033 1034 1
   765 1034 1039 1
   766 1035 1037 1
   767 1035 1036 1
   768 1037 1039 1
   769 1037 1038 1
   770 1039 1040 1
   771 1040 1050 ar
   772 1040 1041 ar
   773 1041 1042 ar
   774 1042 1043 ar
   775 1043 1050 ar
   776 1043 1044 1
   777 1044 1045 2
   778 1044 1046 am
   779 1046 1047 1
   780 1047 1049 2
   781 1047 1048 2
   782 1049 1050 1
   783 1028 1029 1
   784 1028 1030 1
   785 1028 1031 1
   786 1003 1028 1
   787   18    2 1
   788   19    2 1
   789   20    3 1
   790   21    5 1
   791   22    7 1
   792   23    9 1
   793   24   16 1
   794   25   17 1
   795   50   34 1
   796   51   34 1
   797   52   35 1
   798   53   37 1
   799   54   39 1
   800   55   41 1
   801   56   45 1
   802   57   48 1
   803   58   49 1
   804   83   64 1
   805   84   64 1
   806   85   65 1
   807   86   67 1
   808   87   69 1
   809   88   71 1
   810   89   73 1
   811   90   78 1
   812  117   98 1
   813  118   98 1
   814  119   99 1
   815  120  101 1
   816  121  103 1
   817  122  105 1
   818  123  107 1
   819  124  112 1
   820  151  132 1
   821  152  132 1
   822  153  133 1
   823  154  135 1
   824  155  137 1
   825  156  139 1
   826  157  141 1
   827  158  146 1
   828  182  166 1
   829  183  166 1
   830  184  167 1
   831  185  169 1
   832  186  171 1
   833  187  173 1
   834  188  177 1
   835  189  180 1
   836  190  181 1
   837  212  196 1
   838  213  196 1
   839  214  197 1
   840  215  199 1
   841  216  201 1
   842  217  203 1
   843  218  210 1
   844  219  211 1
   845  246  227 1
   846  247  227 1
   847  248  228 1
   848  249  230 1
   849  250  232 1
   850  251  234 1
   851  252  236 1
   852  253  241 1
   853  277  261 1
   854  278  261 1
   855  279  262 1
   856  280  264 1
   857  281  266 1
   858  282  268 1
   859  283  275 1
   860  284  276 1
   861  310  292 1
   862  311  292 1
   863  312  293 1
   864  313  295 1
   865  314  297 1
   866  315  299 1
   867  316  301 1
   868  317  307 1
   869  344  325 1
   870  345  325 1
   871  346  326 1
   872  347  328 1
   873  348  330 1
   874  349  332 1
   875  350  334 1
   876  351  339 1
   877  375  359 1
   878  376  359 1
   879  377  360 1
   880  378  362 1
   881  379  364 1
   882  380  366 1
   883  381  370 1
   884  382  373 1
   885  383  374 1
   886  407  389 1
   887  408  389 1
   888  409  390 1
   889  410  392 1
   890  411  394 1
   891  412  396 1
   892  413  398 1
   893  414  404 1
   894  440  422 1
   895  441  422 1
   896  442  423 1
   897  443  425 1
   898  444  427 1
   899  445  429 1
   900  446  431 1
   901  447  437 1
   902  471  455 1
   903  472  455 1
   904  473  456 1
   905  474  458 1
   906  475  460 1
   907  476  462 1
   908  477  469 1
   909  478  470 1
   910  502  486 1
   911  503  486 1
   912  504  487 1
   913  505  489 1
   914  506  491 1
   915  507  493 1
   916  508  500 1
   917  509  501 1
   918  533  517 1
   919  534  517 1
   920  535  518 1
   921  536  520 1
   922  537  522 1
   923  538  524 1
   924  539  531 1
   925  540  532 1
   926  564  548 1
   927  565  548 1
   928  566  549 1
   929  567  551 1
   930  568  553 1
   931  569  555 1
   932  570  562 1
   933  571  563 1
   934  597  579 1
   935  598  579 1
   936  599  580 1
   937  600  582 1
   938  601  584 1
   939  602  586 1
   940  603  588 1
   941  604  594 1
   942  631  612 1
   943  632  612 1
   944  633  613 1
   945  634  615 1
   946  635  617 1
   947  636  619 1
   948  637  621 1
   949  638  626 1
   950  662  646 1
   951  663  646 1
   952  664  647 1
   953  665  649 1
   954  666  651 1
   955  667  653 1
   956  668  657 1
   957  669  660 1
   958  670  661 1
   959  692  676 1
   960  693  676 1
   961  694  677 1
   962  695  679 1
   963  696  681 1
   964  697  683 1
   965  698  687 1
   966  699  690 1
   967  700  691 1
   968  724  706 1
   969  725  706 1
   970  726  707 1
   971  727  709 1
   972  728  711 1
   973  729  713 1
   974  730  715 1
   975  731  721 1
   976  757  739 1
   977  758  739 1
   978  759  740 1
   979  760  742 1
   980  761  744 1
   981  762  746 1
   982  763  748 1
   983  764  754 1
   984  788  772 1
   985  789  772 1
   986  790  773 1
   987  791  775 1
   988  792  777 1
   989  793  779 1
   990  794  786 1
   991  795  787 1
   992  821  803 1
   993  822  803 1
   994  823  804 1
   995  824  806 1
   996  825  808 1
   997  826  810 1
   998  827  812 1
   999  828  818 1
  1000  854  836 1
  1001  855  836 1
  1002  856  837 1
  1003  857  839 1
  1004  858  841 1
  1005  859  843 1
  1006  860  845 1
  1007  861  851 1
  1008  887  869 1
  1009  888  869 1
  1010  889  870 1
  1011  890  872 1
  1012  891  874 1
  1013  892  876 1
  1014  893  878 1
  1015  894  884 1
  1016  920  902 1
  1017  921  902 1
  1018  922  903 1
  1019  923  905 1
  1020  924  907 1
  1021  925  909 1
  1022  926  911 1
  1023  927  917 1
  1024  951  935 1
  1025  952  935 1
  1026  953  936 1
  1027  954  938 1
  1028  955  940 1
  1029  956  942 1
  1030  957  949 1
  1031  958  950 1
  1032  984  966 1
  1033  985  966 1
  1034  986  967 1
  1035  987  969 1
  1036  988  971 1
  1037  989  973 1
  1038  990  975 1
  1039  991  981 1
  1040 1017  999 1
  1041 1018  999 1
  1042 1019 1000 1
  1043 1020 1002 1
  1044 1021 1004 1
  1045 1022 1006 1
  1046 1023 1008 1
  1047 1024 1014 1
  1048 1051 1032 1
  1049 1052 1032 1
  1050 1053 1033 1
  1051 1054 1035 1
  1052 1055 1037 1
  1053 1056 1039 1
  1054 1057 1041 1
  1055 1058 1046 1
  1056   26   15 1
  1057   27   15 1
  1058   91   80 1
  1059   92   80 1
  1060  125  114 1
  1061  126  114 1
  1062  159  148 1
  1063  160  148 1
  1064  220  209 1
  1065  221  209 1
  1066  254  243 1
  1067  255  243 1
  1068  285  274 1
  1069  286  274 1
  1070  352  341 1
  1071  353  341 1
  1072  479  468 1
  1073  480  468 1
  1074  510  499 1
  1075  511  499 1
  1076  541  530 1
  1077  542  530 1
  1078  572  561 1
  1079  573  561 1
  1080  639  628 1
  1081  640  628 1
  1082  796  785 1
  1083  797  785 1
  1084  959  948 1
  1085  960  948 1
  1086 1059 1048 1
  1087 1060 1048 1
  1088  701  682 1
  1089  256  233 1
  1090  671  652 1
  1091  641  618 1
  1092  543  523 1
  1093  384  365 1
  1094   59   40 1
  1095  574  554 1
  1096  732  712 1
  1097  895  875 1
  1098  992  972 1
  1099  928  908 1
  1100  961  941 1
  1101  862  842 1
  1102   93   70 1
  1103  605  585 1
  1104   28    8 1
  1105  765  745 1
  1106  481  461 1
  1107  318  305 1
  1108  319  305 1
  1109  415  402 1
  1110  416  402 1
  1111  896  882 1
  1112  897  882 1
  1113  766  752 1
  1114  767  752 1
  1115  829  816 1
  1116  830  816 1
  1117  863  849 1
  1118  864  849 1
  1119  733  719 1
  1120  734  719 1
  1121  448  435 1
  1122  449  435 1
  1123  993  979 1
  1124  994  979 1
  1125  606  592 1
  1126  607  592 1
  1127  929  915 1
  1128  930  915 1
  1129 1025 1012 1
  1130 1026 1012 1
  1131 1027 1005 1
  1132  417  395 1
  1133  127  104 1
  1134   29    1 1
  1135  287  267 1
  1136 1061 1036 1
  1137  450  428 1
  1138  161  138 1
  1139  320  298 1
  1140 1062 1038 1
  1141  798  778 1
  1142  191  172 1
  1143  354  331 1
  1144  512  492 1
  1145  831  809 1
  1146  222  202 1
@<TRIPOS>SUBSTRUCTURE
     1   C     3 RESIDUE           4 A       C     1 ROOT
     2   U    35 RESIDUE           4 A       U     2
     3   G    65 RESIDUE           4 A       G     2
     4   G    99 RESIDUE           4 A       G     2
     5   G   133 RESIDUE           4 A       G     2
     6   U   167 RESIDUE           4 A       U     2
     7   C   197 RESIDUE           4 A       C     2
     8   G   228 RESIDUE           4 A       G     2
     9   C   262 RESIDUE           4 A       C     2
    10   A   293 RESIDUE           4 A       A     2
    11   G   326 RESIDUE           4 A       G     2
    12   U   360 RESIDUE           4 A       U     2
    13   A   390 RESIDUE           4 A       A     2
    14   A   423 RESIDUE           4 A       A     2
    15   C   456 RESIDUE           4 A       C     2
    16   C   487 RESIDUE           4 A       C     2
    17   C   518 RESIDUE           4 A       C     2
    18   C   549 RESIDUE           4 A       C     2
    19   A   580 RESIDUE           4 A       A     2
    20   G   613 RESIDUE           4 A       G     2
    21   U   647 RESIDUE           4 A       U     2
    22   U   677 RESIDUE           4 A       U     2
    23   A   707 RESIDUE           4 A       A     2
    24   A   740 RESIDUE           4 A       A     2
    25   C   773 RESIDUE           4 A       C     2
    26   A   804 RESIDUE           4 A       A     2
    27   A   837 RESIDUE           4 A       A     2
    28   A   870 RESIDUE           4 A       A     2
    29   A   903 RESIDUE           4 A       A     2
    30   C   936 RESIDUE           4 A       C     2
    31   A   967 RESIDUE           4 A       A     2
    32   A  1000 RESIDUE           4 A       A     2
    33   G  1033 RESIDUE           4 A       G     1
